sim-outorder: SimpleScalar/Alpha Tool Set version 3.0 of August, 2003.
Copyright (c) 1994-2003 by Todd M. Austin, Ph.D. and SimpleScalar, LLC.
All Rights Reserved. This version of SimpleScalar is licensed for academic
non-commercial use.  No portion of this work may be used by any commercial
entity, or for any commercial purpose, without the prior written permission
of SimpleScalar, LLC (info@simplescalar.com).

warning: section `.comment' ignored...
sim: command line: sim-outorder -fastfwd 100000000 -max:inst 100000000 -bpred bimod -bpred:bimod 8 ../../exe/ammp.exe 

sim: simulation started @ Fri Oct 25 20:18:20 2024, options follow:

sim-outorder: This simulator implements a very detailed out-of-order issue
superscalar processor with a two-level memory system and speculative
execution support.  This simulator is a performance simulator, tracking the
latency of all pipeline operations.

# -config                     # load configuration from a file
# -dumpconfig                 # dump configuration to a file
# -h                    false # print help message    
# -v                    false # verbose operation     
# -d                    false # enable debug message  
# -i                    false # start in Dlite debugger
-seed                       1 # random number generator seed (0 for timer seed)
# -q                    false # initialize and terminate immediately
# -chkpt               <null> # restore EIO trace execution from <fname>
# -redir:sim           <null> # redirect simulator output to file (non-interactive only)
# -redir:prog          <null> # redirect simulated program output to file
-nice                       0 # simulator scheduling priority
-max:inst           100000000 # maximum number of inst's to execute
-fastfwd            100000000 # number of insts skipped before timing starts
# -ptrace              <null> # generate pipetrace, i.e., <fname|stdout|stderr> <range>
-fetch:ifqsize              4 # instruction fetch queue size (in insts)
-fetch:mplat                3 # extra branch mis-prediction latency
-fetch:speed                1 # speed of front-end of machine relative to execution core
-bpred                  bimod # branch predictor type {nottaken|taken|perfect|bimod|2lev|comb}
-bpred:bimod     8 # bimodal predictor config (<table size>)
-bpred:2lev      1 1024 8 0 # 2-level predictor config (<l1size> <l2size> <hist_size> <xor>)
-bpred:comb      1024 # combining predictor config (<meta_table_size>)
-bpred:ras                  8 # return address stack size (0 for no return stack)
-bpred:btb       512 4 # BTB config (<num_sets> <associativity>)
# -bpred:spec_update       <null> # speculative predictors update in {ID|WB} (default non-spec)
-decode:width               4 # instruction decode B/W (insts/cycle)
-issue:width                4 # instruction issue B/W (insts/cycle)
-issue:inorder          false # run pipeline with in-order issue
-issue:wrongpath         true # issue instructions down wrong execution paths
-commit:width               4 # instruction commit B/W (insts/cycle)
-ruu:size                  16 # register update unit (RUU) size
-lsq:size                   8 # load/store queue (LSQ) size
-cache:dl1       dl1:128:32:4:l # l1 data cache config, i.e., {<config>|none}
-cache:dl1lat               1 # l1 data cache hit latency (in cycles)
-cache:dl2       ul2:1024:64:4:l # l2 data cache config, i.e., {<config>|none}
-cache:dl2lat               6 # l2 data cache hit latency (in cycles)
-cache:il1       il1:512:32:1:l # l1 inst cache config, i.e., {<config>|dl1|dl2|none}
-cache:il1lat               1 # l1 instruction cache hit latency (in cycles)
-cache:il2                dl2 # l2 instruction cache config, i.e., {<config>|dl2|none}
-cache:il2lat               6 # l2 instruction cache hit latency (in cycles)
-cache:flush            false # flush caches on system calls
-cache:icompress        false # convert 64-bit inst addresses to 32-bit inst equivalents
-mem:lat         18 2 # memory access latency (<first_chunk> <inter_chunk>)
-mem:width                  8 # memory access bus width (in bytes)
-tlb:itlb        itlb:16:4096:4:l # instruction TLB config, i.e., {<config>|none}
-tlb:dtlb        dtlb:32:4096:4:l # data TLB config, i.e., {<config>|none}
-tlb:lat                   30 # inst/data TLB miss latency (in cycles)
-res:ialu                   4 # total number of integer ALU's available
-res:imult                  1 # total number of integer multiplier/dividers available
-res:memport                2 # total number of memory system ports available (to CPU)
-res:fpalu                  4 # total number of floating point ALU's available
-res:fpmult                 1 # total number of floating point multiplier/dividers available
# -pcstat              <null> # profile stat(s) against text addr's (mult uses ok)
-bugcompat              false # operate in backward-compatible bugs mode (for testing only)

  Pipetrace range arguments are formatted as follows:

    {{@|#}<start>}:{{@|#|+}<end>}

  Both ends of the range are optional, if neither are specified, the entire
  execution is traced.  Ranges that start with a `@' designate an address
  range to be traced, those that start with an `#' designate a cycle count
  range.  All other range values represent an instruction count range.  The
  second argument, if specified with a `+', indicates a value relative
  to the first argument, e.g., 1000:+100 == 1000:1100.  Program symbols may
  be used in all contexts.

    Examples:   -ptrace FOO.trc #0:#1000
                -ptrace BAR.trc @2000:
                -ptrace BLAH.trc :1500
                -ptrace UXXE.trc :
                -ptrace FOOBAR.trc @main:+278

  Branch predictor configuration examples for 2-level predictor:
    Configurations:   N, M, W, X
      N   # entries in first level (# of shift register(s))
      W   width of shift register(s)
      M   # entries in 2nd level (# of counters, or other FSM)
      X   (yes-1/no-0) xor history and address for 2nd level index
    Sample predictors:
      GAg     : 1, W, 2^W, 0
      GAp     : 1, W, M (M > 2^W), 0
      PAg     : N, W, 2^W, 0
      PAp     : N, W, M (M == 2^(N+W)), 0
      gshare  : 1, W, 2^W, 1
  Predictor `comb' combines a bimodal and a 2-level predictor.

  The cache config parameter <config> has the following format:

    <name>:<nsets>:<bsize>:<assoc>:<repl>

    <name>   - name of the cache being defined
    <nsets>  - number of sets in the cache
    <bsize>  - block size of the cache
    <assoc>  - associativity of the cache
    <repl>   - block replacement strategy, 'l'-LRU, 'f'-FIFO, 'r'-random

    Examples:   -cache:dl1 dl1:4096:32:1:l
                -dtlb dtlb:128:4096:32:r

  Cache levels can be unified by pointing a level of the instruction cache
  hierarchy at the data cache hiearchy using the "dl1" and "dl2" cache
  configuration arguments.  Most sensible combinations are supported, e.g.,

    A unified l2 cache (il2 is pointed at dl2):
      -cache:il1 il1:128:64:1:l -cache:il2 dl2
      -cache:dl1 dl1:256:32:1:l -cache:dl2 ul2:1024:64:2:l

    Or, a fully unified cache hierarchy (il1 pointed at dl1):
      -cache:il1 dl1
      -cache:dl1 ul1:256:32:1:l -cache:dl2 ul2:1024:64:2:l



sim: ** fast forwarding 100000000 insts **
sim: ** starting performance simulation **

sim: ** simulation statistics **
sim_num_insn              100000001 # total number of instructions committed
sim_num_refs               30101334 # total number of loads and stores committed
sim_num_loads              23145477 # total number of loads committed
sim_num_stores         6955857.0000 # total number of stores committed
sim_num_branches           20651019 # total number of branches committed
sim_elapsed_time                 27 # total simulation time in seconds
sim_inst_rate          3703703.7407 # simulation speed (in insts/sec)
sim_total_insn            112552919 # total number of instructions executed
sim_total_refs             32430359 # total number of loads and stores executed
sim_total_loads            25195231 # total number of loads executed
sim_total_stores       7235128.0000 # total number of stores executed
sim_total_branches         23186088 # total number of branches executed
sim_cycle                 152503913 # total simulation time in cycles
sim_IPC                      0.6557 # instructions per cycle
sim_CPI                      1.5250 # cycles per instruction
sim_exec_BW                  0.7380 # total instructions (mis-spec + committed) per cycle
sim_IPB                      4.8424 # instruction per branch
IFQ_count                 540622950 # cumulative IFQ occupancy
IFQ_fcount                129852027 # cumulative IFQ full count
ifq_occupancy                3.5450 # avg IFQ occupancy (insn's)
ifq_rate                     0.7380 # avg IFQ dispatch rate (insn/cycle)
ifq_latency                  4.8033 # avg IFQ occupant latency (cycle's)
ifq_full                     0.8515 # fraction of time (cycle's) IFQ was full
RUU_count                2152842620 # cumulative RUU occupancy
RUU_fcount                111785971 # cumulative RUU full count
ruu_occupancy               14.1166 # avg RUU occupancy (insn's)
ruu_rate                     0.7380 # avg RUU dispatch rate (insn/cycle)
ruu_latency                 19.1274 # avg RUU occupant latency (cycle's)
ruu_full                     0.7330 # fraction of time (cycle's) RUU was full
LSQ_count                 962833253 # cumulative LSQ occupancy
LSQ_fcount                105623944 # cumulative LSQ full count
lsq_occupancy                6.3135 # avg LSQ occupancy (insn's)
lsq_rate                     0.7380 # avg LSQ dispatch rate (insn/cycle)
lsq_latency                  8.5545 # avg LSQ occupant latency (cycle's)
lsq_full                     0.6926 # fraction of time (cycle's) LSQ was full
sim_slip                 3206700538 # total number of slip cycles
avg_sim_slip                32.0670 # the average slip between issue and retirement
bpred_bimod.lookups        23921299 # total number of bpred lookups
bpred_bimod.updates        20651018 # total number of updates
bpred_bimod.addr_hits      17755318 # total number of address-predicted hits
bpred_bimod.dir_hits       17770575 # total number of direction-predicted hits (includes addr-hits)
bpred_bimod.misses          2880443 # total number of misses
bpred_bimod.jr_hits         1129690 # total number of address-predicted hits for JR's
bpred_bimod.jr_seen         1144770 # total number of JR's seen
bpred_bimod.jr_non_ras_hits.PP         3060 # total number of address-predicted hits for non-RAS JR's
bpred_bimod.jr_non_ras_seen.PP         3065 # total number of non-RAS JR's seen
bpred_bimod.bpred_addr_rate    0.8598 # branch address-prediction rate (i.e., addr-hits/updates)
bpred_bimod.bpred_dir_rate    0.8605 # branch direction-prediction rate (i.e., all-hits/updates)
bpred_bimod.bpred_jr_rate    0.9868 # JR address-prediction rate (i.e., JR addr-hits/JRs seen)
bpred_bimod.bpred_jr_non_ras_rate.PP    0.9984 # non-RAS JR addr-pred rate (ie, non-RAS JR hits/JRs seen)
bpred_bimod.retstack_pushes      1370046 # total number of address pushed onto ret-addr stack
bpred_bimod.retstack_pops      1245323 # total number of address popped off of ret-addr stack
bpred_bimod.used_ras.PP      1141705 # total number of RAS predictions used
bpred_bimod.ras_hits.PP      1126630 # total number of RAS hits
bpred_bimod.ras_rate.PP    0.9868 # RAS prediction rate (i.e., RAS hits/used RAS)
il1.accesses              117730785 # total number of accesses
il1.hits                  117108894 # total number of hits
il1.misses                   621891 # total number of misses
il1.replacements             621569 # total number of replacements
il1.writebacks                    0 # total number of writebacks
il1.invalidations                 0 # total number of invalidations
il1.miss_rate                0.0053 # miss rate (i.e., misses/ref)
il1.repl_rate                0.0053 # replacement rate (i.e., repls/ref)
il1.wb_rate                  0.0000 # writeback rate (i.e., wrbks/ref)
il1.inv_rate                 0.0000 # invalidation rate (i.e., invs/ref)
dl1.accesses               27381964 # total number of accesses
dl1.hits                   24024567 # total number of hits
dl1.misses                  3357397 # total number of misses
dl1.replacements            3356885 # total number of replacements
dl1.writebacks                43913 # total number of writebacks
dl1.invalidations                 0 # total number of invalidations
dl1.miss_rate                0.1226 # miss rate (i.e., misses/ref)
dl1.repl_rate                0.1226 # replacement rate (i.e., repls/ref)
dl1.wb_rate                  0.0016 # writeback rate (i.e., wrbks/ref)
dl1.inv_rate                 0.0000 # invalidation rate (i.e., invs/ref)
ul2.accesses                4023201 # total number of accesses
ul2.hits                     681578 # total number of hits
ul2.misses                  3341623 # total number of misses
ul2.replacements            3338251 # total number of replacements
ul2.writebacks                27490 # total number of writebacks
ul2.invalidations                 0 # total number of invalidations
ul2.miss_rate                0.8306 # miss rate (i.e., misses/ref)
ul2.repl_rate                0.8297 # replacement rate (i.e., repls/ref)
ul2.wb_rate                  0.0068 # writeback rate (i.e., wrbks/ref)
ul2.inv_rate                 0.0000 # invalidation rate (i.e., invs/ref)
itlb.accesses             117730785 # total number of accesses
itlb.hits                 117730765 # total number of hits
itlb.misses                      20 # total number of misses
itlb.replacements                 0 # total number of replacements
itlb.writebacks                   0 # total number of writebacks
itlb.invalidations                0 # total number of invalidations
itlb.miss_rate               0.0000 # miss rate (i.e., misses/ref)
itlb.repl_rate               0.0000 # replacement rate (i.e., repls/ref)
itlb.wb_rate                 0.0000 # writeback rate (i.e., wrbks/ref)
itlb.inv_rate                0.0000 # invalidation rate (i.e., invs/ref)
dtlb.accesses              30797899 # total number of accesses
dtlb.hits                  28727926 # total number of hits
dtlb.misses                 2069973 # total number of misses
dtlb.replacements           2069845 # total number of replacements
dtlb.writebacks                   0 # total number of writebacks
dtlb.invalidations                0 # total number of invalidations
dtlb.miss_rate               0.0672 # miss rate (i.e., misses/ref)
dtlb.repl_rate               0.0672 # replacement rate (i.e., repls/ref)
dtlb.wb_rate                 0.0000 # writeback rate (i.e., wrbks/ref)
dtlb.inv_rate                0.0000 # invalidation rate (i.e., invs/ref)
sim_invalid_addrs                 0 # total non-speculative bogus addresses seen (debug var)
ld_text_base           0x0120000000 # program text (code) segment base
ld_text_size                 368640 # program text (code) size in bytes
ld_data_base           0x0140000000 # program initialized data segment base
ld_data_size                  83584 # program init'ed `.data' and uninit'ed `.bss' size in bytes
ld_stack_base          0x011ff9b000 # program stack segment base (highest address in stack)
ld_stack_size                 16384 # program initial stack size
ld_prog_entry          0x0120013040 # program entry point (initial PC)
ld_environ_base        0x011ff97000 # program environment base address address
ld_target_big_endian              0 # target executable endian-ness, non-zero if big endian
mem.page_count                 1809 # total number of pages allocated
mem.page_mem                 14472k # total size of memory pages allocated
mem.ptab_misses              254654 # total first level page table misses
mem.ptab_accesses        1166803932 # total page table accesses
mem.ptab_miss_rate           0.0002 # first level page table miss rate

sim-outorder: SimpleScalar/Alpha Tool Set version 3.0 of August, 2003.
Copyright (c) 1994-2003 by Todd M. Austin, Ph.D. and SimpleScalar, LLC.
All Rights Reserved. This version of SimpleScalar is licensed for academic
non-commercial use.  No portion of this work may be used by any commercial
entity, or for any commercial purpose, without the prior written permission
of SimpleScalar, LLC (info@simplescalar.com).

warning: section `.comment' ignored...
sim: command line: sim-outorder -fastfwd 100000000 -max:inst 100000000 -bpred bimod -bpred:bimod 32 ../../exe/ammp.exe 

sim: simulation started @ Fri Oct 25 20:18:47 2024, options follow:

sim-outorder: This simulator implements a very detailed out-of-order issue
superscalar processor with a two-level memory system and speculative
execution support.  This simulator is a performance simulator, tracking the
latency of all pipeline operations.

# -config                     # load configuration from a file
# -dumpconfig                 # dump configuration to a file
# -h                    false # print help message    
# -v                    false # verbose operation     
# -d                    false # enable debug message  
# -i                    false # start in Dlite debugger
-seed                       1 # random number generator seed (0 for timer seed)
# -q                    false # initialize and terminate immediately
# -chkpt               <null> # restore EIO trace execution from <fname>
# -redir:sim           <null> # redirect simulator output to file (non-interactive only)
# -redir:prog          <null> # redirect simulated program output to file
-nice                       0 # simulator scheduling priority
-max:inst           100000000 # maximum number of inst's to execute
-fastfwd            100000000 # number of insts skipped before timing starts
# -ptrace              <null> # generate pipetrace, i.e., <fname|stdout|stderr> <range>
-fetch:ifqsize              4 # instruction fetch queue size (in insts)
-fetch:mplat                3 # extra branch mis-prediction latency
-fetch:speed                1 # speed of front-end of machine relative to execution core
-bpred                  bimod # branch predictor type {nottaken|taken|perfect|bimod|2lev|comb}
-bpred:bimod     32 # bimodal predictor config (<table size>)
-bpred:2lev      1 1024 8 0 # 2-level predictor config (<l1size> <l2size> <hist_size> <xor>)
-bpred:comb      1024 # combining predictor config (<meta_table_size>)
-bpred:ras                  8 # return address stack size (0 for no return stack)
-bpred:btb       512 4 # BTB config (<num_sets> <associativity>)
# -bpred:spec_update       <null> # speculative predictors update in {ID|WB} (default non-spec)
-decode:width               4 # instruction decode B/W (insts/cycle)
-issue:width                4 # instruction issue B/W (insts/cycle)
-issue:inorder          false # run pipeline with in-order issue
-issue:wrongpath         true # issue instructions down wrong execution paths
-commit:width               4 # instruction commit B/W (insts/cycle)
-ruu:size                  16 # register update unit (RUU) size
-lsq:size                   8 # load/store queue (LSQ) size
-cache:dl1       dl1:128:32:4:l # l1 data cache config, i.e., {<config>|none}
-cache:dl1lat               1 # l1 data cache hit latency (in cycles)
-cache:dl2       ul2:1024:64:4:l # l2 data cache config, i.e., {<config>|none}
-cache:dl2lat               6 # l2 data cache hit latency (in cycles)
-cache:il1       il1:512:32:1:l # l1 inst cache config, i.e., {<config>|dl1|dl2|none}
-cache:il1lat               1 # l1 instruction cache hit latency (in cycles)
-cache:il2                dl2 # l2 instruction cache config, i.e., {<config>|dl2|none}
-cache:il2lat               6 # l2 instruction cache hit latency (in cycles)
-cache:flush            false # flush caches on system calls
-cache:icompress        false # convert 64-bit inst addresses to 32-bit inst equivalents
-mem:lat         18 2 # memory access latency (<first_chunk> <inter_chunk>)
-mem:width                  8 # memory access bus width (in bytes)
-tlb:itlb        itlb:16:4096:4:l # instruction TLB config, i.e., {<config>|none}
-tlb:dtlb        dtlb:32:4096:4:l # data TLB config, i.e., {<config>|none}
-tlb:lat                   30 # inst/data TLB miss latency (in cycles)
-res:ialu                   4 # total number of integer ALU's available
-res:imult                  1 # total number of integer multiplier/dividers available
-res:memport                2 # total number of memory system ports available (to CPU)
-res:fpalu                  4 # total number of floating point ALU's available
-res:fpmult                 1 # total number of floating point multiplier/dividers available
# -pcstat              <null> # profile stat(s) against text addr's (mult uses ok)
-bugcompat              false # operate in backward-compatible bugs mode (for testing only)

  Pipetrace range arguments are formatted as follows:

    {{@|#}<start>}:{{@|#|+}<end>}

  Both ends of the range are optional, if neither are specified, the entire
  execution is traced.  Ranges that start with a `@' designate an address
  range to be traced, those that start with an `#' designate a cycle count
  range.  All other range values represent an instruction count range.  The
  second argument, if specified with a `+', indicates a value relative
  to the first argument, e.g., 1000:+100 == 1000:1100.  Program symbols may
  be used in all contexts.

    Examples:   -ptrace FOO.trc #0:#1000
                -ptrace BAR.trc @2000:
                -ptrace BLAH.trc :1500
                -ptrace UXXE.trc :
                -ptrace FOOBAR.trc @main:+278

  Branch predictor configuration examples for 2-level predictor:
    Configurations:   N, M, W, X
      N   # entries in first level (# of shift register(s))
      W   width of shift register(s)
      M   # entries in 2nd level (# of counters, or other FSM)
      X   (yes-1/no-0) xor history and address for 2nd level index
    Sample predictors:
      GAg     : 1, W, 2^W, 0
      GAp     : 1, W, M (M > 2^W), 0
      PAg     : N, W, 2^W, 0
      PAp     : N, W, M (M == 2^(N+W)), 0
      gshare  : 1, W, 2^W, 1
  Predictor `comb' combines a bimodal and a 2-level predictor.

  The cache config parameter <config> has the following format:

    <name>:<nsets>:<bsize>:<assoc>:<repl>

    <name>   - name of the cache being defined
    <nsets>  - number of sets in the cache
    <bsize>  - block size of the cache
    <assoc>  - associativity of the cache
    <repl>   - block replacement strategy, 'l'-LRU, 'f'-FIFO, 'r'-random

    Examples:   -cache:dl1 dl1:4096:32:1:l
                -dtlb dtlb:128:4096:32:r

  Cache levels can be unified by pointing a level of the instruction cache
  hierarchy at the data cache hiearchy using the "dl1" and "dl2" cache
  configuration arguments.  Most sensible combinations are supported, e.g.,

    A unified l2 cache (il2 is pointed at dl2):
      -cache:il1 il1:128:64:1:l -cache:il2 dl2
      -cache:dl1 dl1:256:32:1:l -cache:dl2 ul2:1024:64:2:l

    Or, a fully unified cache hierarchy (il1 pointed at dl1):
      -cache:il1 dl1
      -cache:dl1 ul1:256:32:1:l -cache:dl2 ul2:1024:64:2:l



sim: ** fast forwarding 100000000 insts **
sim: ** starting performance simulation **

sim: ** simulation statistics **
sim_num_insn              100000001 # total number of instructions committed
sim_num_refs               30101334 # total number of loads and stores committed
sim_num_loads              23145477 # total number of loads committed
sim_num_stores         6955857.0000 # total number of stores committed
sim_num_branches           20651019 # total number of branches committed
sim_elapsed_time                 30 # total simulation time in seconds
sim_inst_rate          3333333.3667 # simulation speed (in insts/sec)
sim_total_insn            110112029 # total number of instructions executed
sim_total_refs             32195305 # total number of loads and stores executed
sim_total_loads            24959347 # total number of loads executed
sim_total_stores       7235958.0000 # total number of stores executed
sim_total_branches         22489444 # total number of branches executed
sim_cycle                 147864938 # total simulation time in cycles
sim_IPC                      0.6763 # instructions per cycle
sim_CPI                      1.4786 # cycles per instruction
sim_exec_BW                  0.7447 # total instructions (mis-spec + committed) per cycle
sim_IPB                      4.8424 # instruction per branch
IFQ_count                 544215978 # cumulative IFQ occupancy
IFQ_fcount                131881307 # cumulative IFQ full count
ifq_occupancy                3.6805 # avg IFQ occupancy (insn's)
ifq_rate                     0.7447 # avg IFQ dispatch rate (insn/cycle)
ifq_latency                  4.9424 # avg IFQ occupant latency (cycle's)
ifq_full                     0.8919 # fraction of time (cycle's) IFQ was full
RUU_count                2157230832 # cumulative RUU occupancy
RUU_fcount                117446964 # cumulative RUU full count
ruu_occupancy               14.5892 # avg RUU occupancy (insn's)
ruu_rate                     0.7447 # avg RUU dispatch rate (insn/cycle)
ruu_latency                 19.5912 # avg RUU occupant latency (cycle's)
ruu_full                     0.7943 # fraction of time (cycle's) RUU was full
LSQ_count                 965147625 # cumulative LSQ occupancy
LSQ_fcount                106190560 # cumulative LSQ full count
lsq_occupancy                6.5272 # avg LSQ occupancy (insn's)
lsq_rate                     0.7447 # avg LSQ dispatch rate (insn/cycle)
lsq_latency                  8.7651 # avg LSQ occupant latency (cycle's)
lsq_full                     0.7182 # fraction of time (cycle's) LSQ was full
sim_slip                 3218402386 # total number of slip cycles
avg_sim_slip                32.1840 # the average slip between issue and retirement
bpred_bimod.lookups        22957355 # total number of bpred lookups
bpred_bimod.updates        20651018 # total number of updates
bpred_bimod.addr_hits      19003062 # total number of address-predicted hits
bpred_bimod.dir_hits       19026420 # total number of direction-predicted hits (includes addr-hits)
bpred_bimod.misses          1624598 # total number of misses
bpred_bimod.jr_hits         1121581 # total number of address-predicted hits for JR's
bpred_bimod.jr_seen         1144770 # total number of JR's seen
bpred_bimod.jr_non_ras_hits.PP         3060 # total number of address-predicted hits for non-RAS JR's
bpred_bimod.jr_non_ras_seen.PP         3065 # total number of non-RAS JR's seen
bpred_bimod.bpred_addr_rate    0.9202 # branch address-prediction rate (i.e., addr-hits/updates)
bpred_bimod.bpred_dir_rate    0.9213 # branch direction-prediction rate (i.e., all-hits/updates)
bpred_bimod.bpred_jr_rate    0.9797 # JR address-prediction rate (i.e., JR addr-hits/JRs seen)
bpred_bimod.bpred_jr_non_ras_rate.PP    0.9984 # non-RAS JR addr-pred rate (ie, non-RAS JR hits/JRs seen)
bpred_bimod.retstack_pushes      1362118 # total number of address pushed onto ret-addr stack
bpred_bimod.retstack_pops      1246797 # total number of address popped off of ret-addr stack
bpred_bimod.used_ras.PP      1141705 # total number of RAS predictions used
bpred_bimod.ras_hits.PP      1118521 # total number of RAS hits
bpred_bimod.ras_rate.PP    0.9797 # RAS prediction rate (i.e., RAS hits/used RAS)
il1.accesses              114238718 # total number of accesses
il1.hits                  113615251 # total number of hits
il1.misses                   623467 # total number of misses
il1.replacements             623149 # total number of replacements
il1.writebacks                    0 # total number of writebacks
il1.invalidations                 0 # total number of invalidations
il1.miss_rate                0.0055 # miss rate (i.e., misses/ref)
il1.repl_rate                0.0055 # replacement rate (i.e., repls/ref)
il1.wb_rate                  0.0000 # writeback rate (i.e., wrbks/ref)
il1.inv_rate                 0.0000 # invalidation rate (i.e., invs/ref)
dl1.accesses               27406778 # total number of accesses
dl1.hits                   24049674 # total number of hits
dl1.misses                  3357104 # total number of misses
dl1.replacements            3356592 # total number of replacements
dl1.writebacks                43920 # total number of writebacks
dl1.invalidations                 0 # total number of invalidations
dl1.miss_rate                0.1225 # miss rate (i.e., misses/ref)
dl1.repl_rate                0.1225 # replacement rate (i.e., repls/ref)
dl1.wb_rate                  0.0016 # writeback rate (i.e., wrbks/ref)
dl1.inv_rate                 0.0000 # invalidation rate (i.e., invs/ref)
ul2.accesses                4024491 # total number of accesses
ul2.hits                     682112 # total number of hits
ul2.misses                  3342379 # total number of misses
ul2.replacements            3339008 # total number of replacements
ul2.writebacks                27497 # total number of writebacks
ul2.invalidations                 0 # total number of invalidations
ul2.miss_rate                0.8305 # miss rate (i.e., misses/ref)
ul2.repl_rate                0.8297 # replacement rate (i.e., repls/ref)
ul2.wb_rate                  0.0068 # writeback rate (i.e., wrbks/ref)
ul2.inv_rate                 0.0000 # invalidation rate (i.e., invs/ref)
itlb.accesses             114238718 # total number of accesses
itlb.hits                 114238697 # total number of hits
itlb.misses                      21 # total number of misses
itlb.replacements                 0 # total number of replacements
itlb.writebacks                   0 # total number of writebacks
itlb.invalidations                0 # total number of invalidations
itlb.miss_rate               0.0000 # miss rate (i.e., misses/ref)
itlb.repl_rate               0.0000 # replacement rate (i.e., repls/ref)
itlb.wb_rate                 0.0000 # writeback rate (i.e., wrbks/ref)
itlb.inv_rate                0.0000 # invalidation rate (i.e., invs/ref)
dtlb.accesses              30815350 # total number of accesses
dtlb.hits                  28746356 # total number of hits
dtlb.misses                 2068994 # total number of misses
dtlb.replacements           2068866 # total number of replacements
dtlb.writebacks                   0 # total number of writebacks
dtlb.invalidations                0 # total number of invalidations
dtlb.miss_rate               0.0671 # miss rate (i.e., misses/ref)
dtlb.repl_rate               0.0671 # replacement rate (i.e., repls/ref)
dtlb.wb_rate                 0.0000 # writeback rate (i.e., wrbks/ref)
dtlb.inv_rate                0.0000 # invalidation rate (i.e., invs/ref)
sim_invalid_addrs                 0 # total non-speculative bogus addresses seen (debug var)
ld_text_base           0x0120000000 # program text (code) segment base
ld_text_size                 368640 # program text (code) size in bytes
ld_data_base           0x0140000000 # program initialized data segment base
ld_data_size                  83584 # program init'ed `.data' and uninit'ed `.bss' size in bytes
ld_stack_base          0x011ff9b000 # program stack segment base (highest address in stack)
ld_stack_size                 16384 # program initial stack size
ld_prog_entry          0x0120013040 # program entry point (initial PC)
ld_environ_base        0x011ff97000 # program environment base address address
ld_target_big_endian              0 # target executable endian-ness, non-zero if big endian
mem.page_count                 1809 # total number of pages allocated
mem.page_mem                 14472k # total size of memory pages allocated
mem.ptab_misses              258692 # total first level page table misses
mem.ptab_accesses        1158789440 # total page table accesses
mem.ptab_miss_rate           0.0002 # first level page table miss rate

sim-outorder: SimpleScalar/Alpha Tool Set version 3.0 of August, 2003.
Copyright (c) 1994-2003 by Todd M. Austin, Ph.D. and SimpleScalar, LLC.
All Rights Reserved. This version of SimpleScalar is licensed for academic
non-commercial use.  No portion of this work may be used by any commercial
entity, or for any commercial purpose, without the prior written permission
of SimpleScalar, LLC (info@simplescalar.com).

warning: section `.comment' ignored...
sim: command line: sim-outorder -fastfwd 100000000 -max:inst 100000000 -bpred bimod -bpred:bimod 128 ../../exe/ammp.exe 

sim: simulation started @ Fri Oct 25 20:19:17 2024, options follow:

sim-outorder: This simulator implements a very detailed out-of-order issue
superscalar processor with a two-level memory system and speculative
execution support.  This simulator is a performance simulator, tracking the
latency of all pipeline operations.

# -config                     # load configuration from a file
# -dumpconfig                 # dump configuration to a file
# -h                    false # print help message    
# -v                    false # verbose operation     
# -d                    false # enable debug message  
# -i                    false # start in Dlite debugger
-seed                       1 # random number generator seed (0 for timer seed)
# -q                    false # initialize and terminate immediately
# -chkpt               <null> # restore EIO trace execution from <fname>
# -redir:sim           <null> # redirect simulator output to file (non-interactive only)
# -redir:prog          <null> # redirect simulated program output to file
-nice                       0 # simulator scheduling priority
-max:inst           100000000 # maximum number of inst's to execute
-fastfwd            100000000 # number of insts skipped before timing starts
# -ptrace              <null> # generate pipetrace, i.e., <fname|stdout|stderr> <range>
-fetch:ifqsize              4 # instruction fetch queue size (in insts)
-fetch:mplat                3 # extra branch mis-prediction latency
-fetch:speed                1 # speed of front-end of machine relative to execution core
-bpred                  bimod # branch predictor type {nottaken|taken|perfect|bimod|2lev|comb}
-bpred:bimod     128 # bimodal predictor config (<table size>)
-bpred:2lev      1 1024 8 0 # 2-level predictor config (<l1size> <l2size> <hist_size> <xor>)
-bpred:comb      1024 # combining predictor config (<meta_table_size>)
-bpred:ras                  8 # return address stack size (0 for no return stack)
-bpred:btb       512 4 # BTB config (<num_sets> <associativity>)
# -bpred:spec_update       <null> # speculative predictors update in {ID|WB} (default non-spec)
-decode:width               4 # instruction decode B/W (insts/cycle)
-issue:width                4 # instruction issue B/W (insts/cycle)
-issue:inorder          false # run pipeline with in-order issue
-issue:wrongpath         true # issue instructions down wrong execution paths
-commit:width               4 # instruction commit B/W (insts/cycle)
-ruu:size                  16 # register update unit (RUU) size
-lsq:size                   8 # load/store queue (LSQ) size
-cache:dl1       dl1:128:32:4:l # l1 data cache config, i.e., {<config>|none}
-cache:dl1lat               1 # l1 data cache hit latency (in cycles)
-cache:dl2       ul2:1024:64:4:l # l2 data cache config, i.e., {<config>|none}
-cache:dl2lat               6 # l2 data cache hit latency (in cycles)
-cache:il1       il1:512:32:1:l # l1 inst cache config, i.e., {<config>|dl1|dl2|none}
-cache:il1lat               1 # l1 instruction cache hit latency (in cycles)
-cache:il2                dl2 # l2 instruction cache config, i.e., {<config>|dl2|none}
-cache:il2lat               6 # l2 instruction cache hit latency (in cycles)
-cache:flush            false # flush caches on system calls
-cache:icompress        false # convert 64-bit inst addresses to 32-bit inst equivalents
-mem:lat         18 2 # memory access latency (<first_chunk> <inter_chunk>)
-mem:width                  8 # memory access bus width (in bytes)
-tlb:itlb        itlb:16:4096:4:l # instruction TLB config, i.e., {<config>|none}
-tlb:dtlb        dtlb:32:4096:4:l # data TLB config, i.e., {<config>|none}
-tlb:lat                   30 # inst/data TLB miss latency (in cycles)
-res:ialu                   4 # total number of integer ALU's available
-res:imult                  1 # total number of integer multiplier/dividers available
-res:memport                2 # total number of memory system ports available (to CPU)
-res:fpalu                  4 # total number of floating point ALU's available
-res:fpmult                 1 # total number of floating point multiplier/dividers available
# -pcstat              <null> # profile stat(s) against text addr's (mult uses ok)
-bugcompat              false # operate in backward-compatible bugs mode (for testing only)

  Pipetrace range arguments are formatted as follows:

    {{@|#}<start>}:{{@|#|+}<end>}

  Both ends of the range are optional, if neither are specified, the entire
  execution is traced.  Ranges that start with a `@' designate an address
  range to be traced, those that start with an `#' designate a cycle count
  range.  All other range values represent an instruction count range.  The
  second argument, if specified with a `+', indicates a value relative
  to the first argument, e.g., 1000:+100 == 1000:1100.  Program symbols may
  be used in all contexts.

    Examples:   -ptrace FOO.trc #0:#1000
                -ptrace BAR.trc @2000:
                -ptrace BLAH.trc :1500
                -ptrace UXXE.trc :
                -ptrace FOOBAR.trc @main:+278

  Branch predictor configuration examples for 2-level predictor:
    Configurations:   N, M, W, X
      N   # entries in first level (# of shift register(s))
      W   width of shift register(s)
      M   # entries in 2nd level (# of counters, or other FSM)
      X   (yes-1/no-0) xor history and address for 2nd level index
    Sample predictors:
      GAg     : 1, W, 2^W, 0
      GAp     : 1, W, M (M > 2^W), 0
      PAg     : N, W, 2^W, 0
      PAp     : N, W, M (M == 2^(N+W)), 0
      gshare  : 1, W, 2^W, 1
  Predictor `comb' combines a bimodal and a 2-level predictor.

  The cache config parameter <config> has the following format:

    <name>:<nsets>:<bsize>:<assoc>:<repl>

    <name>   - name of the cache being defined
    <nsets>  - number of sets in the cache
    <bsize>  - block size of the cache
    <assoc>  - associativity of the cache
    <repl>   - block replacement strategy, 'l'-LRU, 'f'-FIFO, 'r'-random

    Examples:   -cache:dl1 dl1:4096:32:1:l
                -dtlb dtlb:128:4096:32:r

  Cache levels can be unified by pointing a level of the instruction cache
  hierarchy at the data cache hiearchy using the "dl1" and "dl2" cache
  configuration arguments.  Most sensible combinations are supported, e.g.,

    A unified l2 cache (il2 is pointed at dl2):
      -cache:il1 il1:128:64:1:l -cache:il2 dl2
      -cache:dl1 dl1:256:32:1:l -cache:dl2 ul2:1024:64:2:l

    Or, a fully unified cache hierarchy (il1 pointed at dl1):
      -cache:il1 dl1
      -cache:dl1 ul1:256:32:1:l -cache:dl2 ul2:1024:64:2:l



sim: ** fast forwarding 100000000 insts **
sim: ** starting performance simulation **

sim: ** simulation statistics **
sim_num_insn              100000001 # total number of instructions committed
sim_num_refs               30101334 # total number of loads and stores committed
sim_num_loads              23145477 # total number of loads committed
sim_num_stores         6955857.0000 # total number of stores committed
sim_num_branches           20651019 # total number of branches committed
sim_elapsed_time                 37 # total simulation time in seconds
sim_inst_rate          2702702.7297 # simulation speed (in insts/sec)
sim_total_insn            107592449 # total number of instructions executed
sim_total_refs             31682730 # total number of loads and stores executed
sim_total_loads            24446434 # total number of loads executed
sim_total_stores       7236296.0000 # total number of stores executed
sim_total_branches         22048114 # total number of branches executed
sim_cycle                 145043742 # total simulation time in cycles
sim_IPC                      0.6894 # instructions per cycle
sim_CPI                      1.4504 # cycles per instruction
sim_exec_BW                  0.7418 # total instructions (mis-spec + committed) per cycle
sim_IPB                      4.8424 # instruction per branch
IFQ_count                 542217487 # cumulative IFQ occupancy
IFQ_fcount                131442476 # cumulative IFQ full count
ifq_occupancy                3.7383 # avg IFQ occupancy (insn's)
ifq_rate                     0.7418 # avg IFQ dispatch rate (insn/cycle)
ifq_latency                  5.0395 # avg IFQ occupant latency (cycle's)
ifq_full                     0.9062 # fraction of time (cycle's) IFQ was full
RUU_count                2155901027 # cumulative RUU occupancy
RUU_fcount                118410428 # cumulative RUU full count
ruu_occupancy               14.8638 # avg RUU occupancy (insn's)
ruu_rate                     0.7418 # avg RUU dispatch rate (insn/cycle)
ruu_latency                 20.0377 # avg RUU occupant latency (cycle's)
ruu_full                     0.8164 # fraction of time (cycle's) RUU was full
LSQ_count                 964648475 # cumulative LSQ occupancy
LSQ_fcount                106205627 # cumulative LSQ full count
lsq_occupancy                6.6507 # avg LSQ occupancy (insn's)
lsq_rate                     0.7418 # avg LSQ dispatch rate (insn/cycle)
lsq_latency                  8.9658 # avg LSQ occupant latency (cycle's)
lsq_full                     0.7322 # fraction of time (cycle's) LSQ was full
sim_slip                 3221736311 # total number of slip cycles
avg_sim_slip                32.2174 # the average slip between issue and retirement
bpred_bimod.lookups        22388470 # total number of bpred lookups
bpred_bimod.updates        20651018 # total number of updates
bpred_bimod.addr_hits      19590756 # total number of address-predicted hits
bpred_bimod.dir_hits       19609034 # total number of direction-predicted hits (includes addr-hits)
bpred_bimod.misses          1041984 # total number of misses
bpred_bimod.jr_hits         1126671 # total number of address-predicted hits for JR's
bpred_bimod.jr_seen         1144770 # total number of JR's seen
bpred_bimod.jr_non_ras_hits.PP         3060 # total number of address-predicted hits for non-RAS JR's
bpred_bimod.jr_non_ras_seen.PP         3065 # total number of non-RAS JR's seen
bpred_bimod.bpred_addr_rate    0.9487 # branch address-prediction rate (i.e., addr-hits/updates)
bpred_bimod.bpred_dir_rate    0.9495 # branch direction-prediction rate (i.e., all-hits/updates)
bpred_bimod.bpred_jr_rate    0.9842 # JR address-prediction rate (i.e., JR addr-hits/JRs seen)
bpred_bimod.bpred_jr_non_ras_rate.PP    0.9984 # non-RAS JR addr-pred rate (ie, non-RAS JR hits/JRs seen)
bpred_bimod.retstack_pushes      1292056 # total number of address pushed onto ret-addr stack
bpred_bimod.retstack_pops      1163701 # total number of address popped off of ret-addr stack
bpred_bimod.used_ras.PP      1141705 # total number of RAS predictions used
bpred_bimod.ras_hits.PP      1123611 # total number of RAS hits
bpred_bimod.ras_rate.PP    0.9842 # RAS prediction rate (i.e., RAS hits/used RAS)
il1.accesses              110996210 # total number of accesses
il1.hits                  110395125 # total number of hits
il1.misses                   601085 # total number of misses
il1.replacements             600770 # total number of replacements
il1.writebacks                    0 # total number of writebacks
il1.invalidations                 0 # total number of invalidations
il1.miss_rate                0.0054 # miss rate (i.e., misses/ref)
il1.repl_rate                0.0054 # replacement rate (i.e., repls/ref)
il1.wb_rate                  0.0000 # writeback rate (i.e., wrbks/ref)
il1.inv_rate                 0.0000 # invalidation rate (i.e., invs/ref)
dl1.accesses               27205232 # total number of accesses
dl1.hits                   23847831 # total number of hits
dl1.misses                  3357401 # total number of misses
dl1.replacements            3356889 # total number of replacements
dl1.writebacks                43910 # total number of writebacks
dl1.invalidations                 0 # total number of invalidations
dl1.miss_rate                0.1234 # miss rate (i.e., misses/ref)
dl1.repl_rate                0.1234 # replacement rate (i.e., repls/ref)
dl1.wb_rate                  0.0016 # writeback rate (i.e., wrbks/ref)
dl1.inv_rate                 0.0000 # invalidation rate (i.e., invs/ref)
ul2.accesses                4002396 # total number of accesses
ul2.hits                     660017 # total number of hits
ul2.misses                  3342379 # total number of misses
ul2.replacements            3339007 # total number of replacements
ul2.writebacks                27498 # total number of writebacks
ul2.invalidations                 0 # total number of invalidations
ul2.miss_rate                0.8351 # miss rate (i.e., misses/ref)
ul2.repl_rate                0.8343 # replacement rate (i.e., repls/ref)
ul2.wb_rate                  0.0069 # writeback rate (i.e., wrbks/ref)
ul2.inv_rate                 0.0000 # invalidation rate (i.e., invs/ref)
itlb.accesses             110996210 # total number of accesses
itlb.hits                 110996190 # total number of hits
itlb.misses                      20 # total number of misses
itlb.replacements                 0 # total number of replacements
itlb.writebacks                   0 # total number of writebacks
itlb.invalidations                0 # total number of invalidations
itlb.miss_rate               0.0000 # miss rate (i.e., misses/ref)
itlb.repl_rate               0.0000 # replacement rate (i.e., repls/ref)
itlb.wb_rate                 0.0000 # writeback rate (i.e., wrbks/ref)
itlb.inv_rate                0.0000 # invalidation rate (i.e., invs/ref)
dtlb.accesses              30614178 # total number of accesses
dtlb.hits                  28545166 # total number of hits
dtlb.misses                 2069012 # total number of misses
dtlb.replacements           2068884 # total number of replacements
dtlb.writebacks                   0 # total number of writebacks
dtlb.invalidations                0 # total number of invalidations
dtlb.miss_rate               0.0676 # miss rate (i.e., misses/ref)
dtlb.repl_rate               0.0676 # replacement rate (i.e., repls/ref)
dtlb.wb_rate                 0.0000 # writeback rate (i.e., wrbks/ref)
dtlb.inv_rate                0.0000 # invalidation rate (i.e., invs/ref)
sim_invalid_addrs                 0 # total non-speculative bogus addresses seen (debug var)
ld_text_base           0x0120000000 # program text (code) segment base
ld_text_size                 368640 # program text (code) size in bytes
ld_data_base           0x0140000000 # program initialized data segment base
ld_data_size                  83584 # program init'ed `.data' and uninit'ed `.bss' size in bytes
ld_stack_base          0x011ff9b000 # program stack segment base (highest address in stack)
ld_stack_size                 16384 # program initial stack size
ld_prog_entry          0x0120013040 # program entry point (initial PC)
ld_environ_base        0x011ff97000 # program environment base address address
ld_target_big_endian              0 # target executable endian-ness, non-zero if big endian
mem.page_count                 1809 # total number of pages allocated
mem.page_mem                 14472k # total size of memory pages allocated
mem.ptab_misses              254930 # total first level page table misses
mem.ptab_accesses        1150630578 # total page table accesses
mem.ptab_miss_rate           0.0002 # first level page table miss rate

sim-outorder: SimpleScalar/Alpha Tool Set version 3.0 of August, 2003.
Copyright (c) 1994-2003 by Todd M. Austin, Ph.D. and SimpleScalar, LLC.
All Rights Reserved. This version of SimpleScalar is licensed for academic
non-commercial use.  No portion of this work may be used by any commercial
entity, or for any commercial purpose, without the prior written permission
of SimpleScalar, LLC (info@simplescalar.com).

warning: section `.comment' ignored...
sim: command line: sim-outorder -fastfwd 100000000 -max:inst 100000000 -bpred bimod -bpred:bimod 512 ../../exe/ammp.exe 

sim: simulation started @ Fri Oct 25 20:19:55 2024, options follow:

sim-outorder: This simulator implements a very detailed out-of-order issue
superscalar processor with a two-level memory system and speculative
execution support.  This simulator is a performance simulator, tracking the
latency of all pipeline operations.

# -config                     # load configuration from a file
# -dumpconfig                 # dump configuration to a file
# -h                    false # print help message    
# -v                    false # verbose operation     
# -d                    false # enable debug message  
# -i                    false # start in Dlite debugger
-seed                       1 # random number generator seed (0 for timer seed)
# -q                    false # initialize and terminate immediately
# -chkpt               <null> # restore EIO trace execution from <fname>
# -redir:sim           <null> # redirect simulator output to file (non-interactive only)
# -redir:prog          <null> # redirect simulated program output to file
-nice                       0 # simulator scheduling priority
-max:inst           100000000 # maximum number of inst's to execute
-fastfwd            100000000 # number of insts skipped before timing starts
# -ptrace              <null> # generate pipetrace, i.e., <fname|stdout|stderr> <range>
-fetch:ifqsize              4 # instruction fetch queue size (in insts)
-fetch:mplat                3 # extra branch mis-prediction latency
-fetch:speed                1 # speed of front-end of machine relative to execution core
-bpred                  bimod # branch predictor type {nottaken|taken|perfect|bimod|2lev|comb}
-bpred:bimod     512 # bimodal predictor config (<table size>)
-bpred:2lev      1 1024 8 0 # 2-level predictor config (<l1size> <l2size> <hist_size> <xor>)
-bpred:comb      1024 # combining predictor config (<meta_table_size>)
-bpred:ras                  8 # return address stack size (0 for no return stack)
-bpred:btb       512 4 # BTB config (<num_sets> <associativity>)
# -bpred:spec_update       <null> # speculative predictors update in {ID|WB} (default non-spec)
-decode:width               4 # instruction decode B/W (insts/cycle)
-issue:width                4 # instruction issue B/W (insts/cycle)
-issue:inorder          false # run pipeline with in-order issue
-issue:wrongpath         true # issue instructions down wrong execution paths
-commit:width               4 # instruction commit B/W (insts/cycle)
-ruu:size                  16 # register update unit (RUU) size
-lsq:size                   8 # load/store queue (LSQ) size
-cache:dl1       dl1:128:32:4:l # l1 data cache config, i.e., {<config>|none}
-cache:dl1lat               1 # l1 data cache hit latency (in cycles)
-cache:dl2       ul2:1024:64:4:l # l2 data cache config, i.e., {<config>|none}
-cache:dl2lat               6 # l2 data cache hit latency (in cycles)
-cache:il1       il1:512:32:1:l # l1 inst cache config, i.e., {<config>|dl1|dl2|none}
-cache:il1lat               1 # l1 instruction cache hit latency (in cycles)
-cache:il2                dl2 # l2 instruction cache config, i.e., {<config>|dl2|none}
-cache:il2lat               6 # l2 instruction cache hit latency (in cycles)
-cache:flush            false # flush caches on system calls
-cache:icompress        false # convert 64-bit inst addresses to 32-bit inst equivalents
-mem:lat         18 2 # memory access latency (<first_chunk> <inter_chunk>)
-mem:width                  8 # memory access bus width (in bytes)
-tlb:itlb        itlb:16:4096:4:l # instruction TLB config, i.e., {<config>|none}
-tlb:dtlb        dtlb:32:4096:4:l # data TLB config, i.e., {<config>|none}
-tlb:lat                   30 # inst/data TLB miss latency (in cycles)
-res:ialu                   4 # total number of integer ALU's available
-res:imult                  1 # total number of integer multiplier/dividers available
-res:memport                2 # total number of memory system ports available (to CPU)
-res:fpalu                  4 # total number of floating point ALU's available
-res:fpmult                 1 # total number of floating point multiplier/dividers available
# -pcstat              <null> # profile stat(s) against text addr's (mult uses ok)
-bugcompat              false # operate in backward-compatible bugs mode (for testing only)

  Pipetrace range arguments are formatted as follows:

    {{@|#}<start>}:{{@|#|+}<end>}

  Both ends of the range are optional, if neither are specified, the entire
  execution is traced.  Ranges that start with a `@' designate an address
  range to be traced, those that start with an `#' designate a cycle count
  range.  All other range values represent an instruction count range.  The
  second argument, if specified with a `+', indicates a value relative
  to the first argument, e.g., 1000:+100 == 1000:1100.  Program symbols may
  be used in all contexts.

    Examples:   -ptrace FOO.trc #0:#1000
                -ptrace BAR.trc @2000:
                -ptrace BLAH.trc :1500
                -ptrace UXXE.trc :
                -ptrace FOOBAR.trc @main:+278

  Branch predictor configuration examples for 2-level predictor:
    Configurations:   N, M, W, X
      N   # entries in first level (# of shift register(s))
      W   width of shift register(s)
      M   # entries in 2nd level (# of counters, or other FSM)
      X   (yes-1/no-0) xor history and address for 2nd level index
    Sample predictors:
      GAg     : 1, W, 2^W, 0
      GAp     : 1, W, M (M > 2^W), 0
      PAg     : N, W, 2^W, 0
      PAp     : N, W, M (M == 2^(N+W)), 0
      gshare  : 1, W, 2^W, 1
  Predictor `comb' combines a bimodal and a 2-level predictor.

  The cache config parameter <config> has the following format:

    <name>:<nsets>:<bsize>:<assoc>:<repl>

    <name>   - name of the cache being defined
    <nsets>  - number of sets in the cache
    <bsize>  - block size of the cache
    <assoc>  - associativity of the cache
    <repl>   - block replacement strategy, 'l'-LRU, 'f'-FIFO, 'r'-random

    Examples:   -cache:dl1 dl1:4096:32:1:l
                -dtlb dtlb:128:4096:32:r

  Cache levels can be unified by pointing a level of the instruction cache
  hierarchy at the data cache hiearchy using the "dl1" and "dl2" cache
  configuration arguments.  Most sensible combinations are supported, e.g.,

    A unified l2 cache (il2 is pointed at dl2):
      -cache:il1 il1:128:64:1:l -cache:il2 dl2
      -cache:dl1 dl1:256:32:1:l -cache:dl2 ul2:1024:64:2:l

    Or, a fully unified cache hierarchy (il1 pointed at dl1):
      -cache:il1 dl1
      -cache:dl1 ul1:256:32:1:l -cache:dl2 ul2:1024:64:2:l



sim: ** fast forwarding 100000000 insts **
sim: ** starting performance simulation **

sim: ** simulation statistics **
sim_num_insn              100000001 # total number of instructions committed
sim_num_refs               30101334 # total number of loads and stores committed
sim_num_loads              23145477 # total number of loads committed
sim_num_stores         6955857.0000 # total number of stores committed
sim_num_branches           20651019 # total number of branches committed
sim_elapsed_time                 35 # total simulation time in seconds
sim_inst_rate          2857142.8857 # simulation speed (in insts/sec)
sim_total_insn            105934120 # total number of instructions executed
sim_total_refs             31212658 # total number of loads and stores executed
sim_total_loads            24152116 # total number of loads executed
sim_total_stores       7060542.0000 # total number of stores executed
sim_total_branches         21763786 # total number of branches executed
sim_cycle                 143438499 # total simulation time in cycles
sim_IPC                      0.6972 # instructions per cycle
sim_CPI                      1.4344 # cycles per instruction
sim_exec_BW                  0.7385 # total instructions (mis-spec + committed) per cycle
sim_IPB                      4.8424 # instruction per branch
IFQ_count                 541397527 # cumulative IFQ occupancy
IFQ_fcount                131271732 # cumulative IFQ full count
ifq_occupancy                3.7744 # avg IFQ occupancy (insn's)
ifq_rate                     0.7385 # avg IFQ dispatch rate (insn/cycle)
ifq_latency                  5.1107 # avg IFQ occupant latency (cycle's)
ifq_full                     0.9152 # fraction of time (cycle's) IFQ was full
RUU_count                2152828012 # cumulative RUU occupancy
RUU_fcount                119176498 # cumulative RUU full count
ruu_occupancy               15.0087 # avg RUU occupancy (insn's)
ruu_rate                     0.7385 # avg RUU dispatch rate (insn/cycle)
ruu_latency                 20.3223 # avg RUU occupant latency (cycle's)
ruu_full                     0.8309 # fraction of time (cycle's) RUU was full
LSQ_count                 963923380 # cumulative LSQ occupancy
LSQ_fcount                106255304 # cumulative LSQ full count
lsq_occupancy                6.7201 # avg LSQ occupancy (insn's)
lsq_rate                     0.7385 # avg LSQ dispatch rate (insn/cycle)
lsq_latency                  9.0993 # avg LSQ occupant latency (cycle's)
lsq_full                     0.7408 # fraction of time (cycle's) LSQ was full
sim_slip                 3227065434 # total number of slip cycles
avg_sim_slip                32.2707 # the average slip between issue and retirement
bpred_bimod.lookups        22095515 # total number of bpred lookups
bpred_bimod.updates        20651018 # total number of updates
bpred_bimod.addr_hits      19918856 # total number of address-predicted hits
bpred_bimod.dir_hits       19925266 # total number of direction-predicted hits (includes addr-hits)
bpred_bimod.misses           725752 # total number of misses
bpred_bimod.jr_hits         1138540 # total number of address-predicted hits for JR's
bpred_bimod.jr_seen         1144770 # total number of JR's seen
bpred_bimod.jr_non_ras_hits.PP         3060 # total number of address-predicted hits for non-RAS JR's
bpred_bimod.jr_non_ras_seen.PP         3065 # total number of non-RAS JR's seen
bpred_bimod.bpred_addr_rate    0.9645 # branch address-prediction rate (i.e., addr-hits/updates)
bpred_bimod.bpred_dir_rate    0.9649 # branch direction-prediction rate (i.e., all-hits/updates)
bpred_bimod.bpred_jr_rate    0.9946 # JR address-prediction rate (i.e., JR addr-hits/JRs seen)
bpred_bimod.bpred_jr_non_ras_rate.PP    0.9984 # non-RAS JR addr-pred rate (ie, non-RAS JR hits/JRs seen)
bpred_bimod.retstack_pushes      1236068 # total number of address pushed onto ret-addr stack
bpred_bimod.retstack_pops      1147856 # total number of address popped off of ret-addr stack
bpred_bimod.used_ras.PP      1141705 # total number of RAS predictions used
bpred_bimod.ras_hits.PP      1135480 # total number of RAS hits
bpred_bimod.ras_rate.PP    0.9945 # RAS prediction rate (i.e., RAS hits/used RAS)
il1.accesses              109017911 # total number of accesses
il1.hits                  108455389 # total number of hits
il1.misses                   562522 # total number of misses
il1.replacements             562210 # total number of replacements
il1.writebacks                    0 # total number of writebacks
il1.invalidations                 0 # total number of invalidations
il1.miss_rate                0.0052 # miss rate (i.e., misses/ref)
il1.repl_rate                0.0052 # replacement rate (i.e., repls/ref)
il1.wb_rate                  0.0000 # writeback rate (i.e., wrbks/ref)
il1.inv_rate                 0.0000 # invalidation rate (i.e., invs/ref)
dl1.accesses               27075879 # total number of accesses
dl1.hits                   23719513 # total number of hits
dl1.misses                  3356366 # total number of misses
dl1.replacements            3355854 # total number of replacements
dl1.writebacks                43869 # total number of writebacks
dl1.invalidations                 0 # total number of invalidations
dl1.miss_rate                0.1240 # miss rate (i.e., misses/ref)
dl1.repl_rate                0.1239 # replacement rate (i.e., repls/ref)
dl1.wb_rate                  0.0016 # writeback rate (i.e., wrbks/ref)
dl1.inv_rate                 0.0000 # invalidation rate (i.e., invs/ref)
ul2.accesses                3962757 # total number of accesses
ul2.hits                     620659 # total number of hits
ul2.misses                  3342098 # total number of misses
ul2.replacements            3338726 # total number of replacements
ul2.writebacks                27461 # total number of writebacks
ul2.invalidations                 0 # total number of invalidations
ul2.miss_rate                0.8434 # miss rate (i.e., misses/ref)
ul2.repl_rate                0.8425 # replacement rate (i.e., repls/ref)
ul2.wb_rate                  0.0069 # writeback rate (i.e., wrbks/ref)
ul2.inv_rate                 0.0000 # invalidation rate (i.e., invs/ref)
itlb.accesses             109017911 # total number of accesses
itlb.hits                 109017891 # total number of hits
itlb.misses                      20 # total number of misses
itlb.replacements                 0 # total number of replacements
itlb.writebacks                   0 # total number of writebacks
itlb.invalidations                0 # total number of invalidations
itlb.miss_rate               0.0000 # miss rate (i.e., misses/ref)
itlb.repl_rate               0.0000 # replacement rate (i.e., repls/ref)
itlb.wb_rate                 0.0000 # writeback rate (i.e., wrbks/ref)
itlb.inv_rate                0.0000 # invalidation rate (i.e., invs/ref)
dtlb.accesses              30483990 # total number of accesses
dtlb.hits                  28415451 # total number of hits
dtlb.misses                 2068539 # total number of misses
dtlb.replacements           2068411 # total number of replacements
dtlb.writebacks                   0 # total number of writebacks
dtlb.invalidations                0 # total number of invalidations
dtlb.miss_rate               0.0679 # miss rate (i.e., misses/ref)
dtlb.repl_rate               0.0679 # replacement rate (i.e., repls/ref)
dtlb.wb_rate                 0.0000 # writeback rate (i.e., wrbks/ref)
dtlb.inv_rate                0.0000 # invalidation rate (i.e., invs/ref)
sim_invalid_addrs                 0 # total non-speculative bogus addresses seen (debug var)
ld_text_base           0x0120000000 # program text (code) segment base
ld_text_size                 368640 # program text (code) size in bytes
ld_data_base           0x0140000000 # program initialized data segment base
ld_data_size                  83584 # program init'ed `.data' and uninit'ed `.bss' size in bytes
ld_stack_base          0x011ff9b000 # program stack segment base (highest address in stack)
ld_stack_size                 16384 # program initial stack size
ld_prog_entry          0x0120013040 # program entry point (initial PC)
ld_environ_base        0x011ff97000 # program environment base address address
ld_target_big_endian              0 # target executable endian-ness, non-zero if big endian
mem.page_count                 1809 # total number of pages allocated
mem.page_mem                 14472k # total size of memory pages allocated
mem.ptab_misses              251062 # total first level page table misses
mem.ptab_accesses        1145539674 # total page table accesses
mem.ptab_miss_rate           0.0002 # first level page table miss rate

sim-outorder: SimpleScalar/Alpha Tool Set version 3.0 of August, 2003.
Copyright (c) 1994-2003 by Todd M. Austin, Ph.D. and SimpleScalar, LLC.
All Rights Reserved. This version of SimpleScalar is licensed for academic
non-commercial use.  No portion of this work may be used by any commercial
entity, or for any commercial purpose, without the prior written permission
of SimpleScalar, LLC (info@simplescalar.com).

warning: section `.comment' ignored...
sim: command line: sim-outorder -fastfwd 100000000 -max:inst 100000000 -bpred bimod -bpred:bimod 2048 ../../exe/ammp.exe 

sim: simulation started @ Fri Oct 25 20:20:31 2024, options follow:

sim-outorder: This simulator implements a very detailed out-of-order issue
superscalar processor with a two-level memory system and speculative
execution support.  This simulator is a performance simulator, tracking the
latency of all pipeline operations.

# -config                     # load configuration from a file
# -dumpconfig                 # dump configuration to a file
# -h                    false # print help message    
# -v                    false # verbose operation     
# -d                    false # enable debug message  
# -i                    false # start in Dlite debugger
-seed                       1 # random number generator seed (0 for timer seed)
# -q                    false # initialize and terminate immediately
# -chkpt               <null> # restore EIO trace execution from <fname>
# -redir:sim           <null> # redirect simulator output to file (non-interactive only)
# -redir:prog          <null> # redirect simulated program output to file
-nice                       0 # simulator scheduling priority
-max:inst           100000000 # maximum number of inst's to execute
-fastfwd            100000000 # number of insts skipped before timing starts
# -ptrace              <null> # generate pipetrace, i.e., <fname|stdout|stderr> <range>
-fetch:ifqsize              4 # instruction fetch queue size (in insts)
-fetch:mplat                3 # extra branch mis-prediction latency
-fetch:speed                1 # speed of front-end of machine relative to execution core
-bpred                  bimod # branch predictor type {nottaken|taken|perfect|bimod|2lev|comb}
-bpred:bimod     2048 # bimodal predictor config (<table size>)
-bpred:2lev      1 1024 8 0 # 2-level predictor config (<l1size> <l2size> <hist_size> <xor>)
-bpred:comb      1024 # combining predictor config (<meta_table_size>)
-bpred:ras                  8 # return address stack size (0 for no return stack)
-bpred:btb       512 4 # BTB config (<num_sets> <associativity>)
# -bpred:spec_update       <null> # speculative predictors update in {ID|WB} (default non-spec)
-decode:width               4 # instruction decode B/W (insts/cycle)
-issue:width                4 # instruction issue B/W (insts/cycle)
-issue:inorder          false # run pipeline with in-order issue
-issue:wrongpath         true # issue instructions down wrong execution paths
-commit:width               4 # instruction commit B/W (insts/cycle)
-ruu:size                  16 # register update unit (RUU) size
-lsq:size                   8 # load/store queue (LSQ) size
-cache:dl1       dl1:128:32:4:l # l1 data cache config, i.e., {<config>|none}
-cache:dl1lat               1 # l1 data cache hit latency (in cycles)
-cache:dl2       ul2:1024:64:4:l # l2 data cache config, i.e., {<config>|none}
-cache:dl2lat               6 # l2 data cache hit latency (in cycles)
-cache:il1       il1:512:32:1:l # l1 inst cache config, i.e., {<config>|dl1|dl2|none}
-cache:il1lat               1 # l1 instruction cache hit latency (in cycles)
-cache:il2                dl2 # l2 instruction cache config, i.e., {<config>|dl2|none}
-cache:il2lat               6 # l2 instruction cache hit latency (in cycles)
-cache:flush            false # flush caches on system calls
-cache:icompress        false # convert 64-bit inst addresses to 32-bit inst equivalents
-mem:lat         18 2 # memory access latency (<first_chunk> <inter_chunk>)
-mem:width                  8 # memory access bus width (in bytes)
-tlb:itlb        itlb:16:4096:4:l # instruction TLB config, i.e., {<config>|none}
-tlb:dtlb        dtlb:32:4096:4:l # data TLB config, i.e., {<config>|none}
-tlb:lat                   30 # inst/data TLB miss latency (in cycles)
-res:ialu                   4 # total number of integer ALU's available
-res:imult                  1 # total number of integer multiplier/dividers available
-res:memport                2 # total number of memory system ports available (to CPU)
-res:fpalu                  4 # total number of floating point ALU's available
-res:fpmult                 1 # total number of floating point multiplier/dividers available
# -pcstat              <null> # profile stat(s) against text addr's (mult uses ok)
-bugcompat              false # operate in backward-compatible bugs mode (for testing only)

  Pipetrace range arguments are formatted as follows:

    {{@|#}<start>}:{{@|#|+}<end>}

  Both ends of the range are optional, if neither are specified, the entire
  execution is traced.  Ranges that start with a `@' designate an address
  range to be traced, those that start with an `#' designate a cycle count
  range.  All other range values represent an instruction count range.  The
  second argument, if specified with a `+', indicates a value relative
  to the first argument, e.g., 1000:+100 == 1000:1100.  Program symbols may
  be used in all contexts.

    Examples:   -ptrace FOO.trc #0:#1000
                -ptrace BAR.trc @2000:
                -ptrace BLAH.trc :1500
                -ptrace UXXE.trc :
                -ptrace FOOBAR.trc @main:+278

  Branch predictor configuration examples for 2-level predictor:
    Configurations:   N, M, W, X
      N   # entries in first level (# of shift register(s))
      W   width of shift register(s)
      M   # entries in 2nd level (# of counters, or other FSM)
      X   (yes-1/no-0) xor history and address for 2nd level index
    Sample predictors:
      GAg     : 1, W, 2^W, 0
      GAp     : 1, W, M (M > 2^W), 0
      PAg     : N, W, 2^W, 0
      PAp     : N, W, M (M == 2^(N+W)), 0
      gshare  : 1, W, 2^W, 1
  Predictor `comb' combines a bimodal and a 2-level predictor.

  The cache config parameter <config> has the following format:

    <name>:<nsets>:<bsize>:<assoc>:<repl>

    <name>   - name of the cache being defined
    <nsets>  - number of sets in the cache
    <bsize>  - block size of the cache
    <assoc>  - associativity of the cache
    <repl>   - block replacement strategy, 'l'-LRU, 'f'-FIFO, 'r'-random

    Examples:   -cache:dl1 dl1:4096:32:1:l
                -dtlb dtlb:128:4096:32:r

  Cache levels can be unified by pointing a level of the instruction cache
  hierarchy at the data cache hiearchy using the "dl1" and "dl2" cache
  configuration arguments.  Most sensible combinations are supported, e.g.,

    A unified l2 cache (il2 is pointed at dl2):
      -cache:il1 il1:128:64:1:l -cache:il2 dl2
      -cache:dl1 dl1:256:32:1:l -cache:dl2 ul2:1024:64:2:l

    Or, a fully unified cache hierarchy (il1 pointed at dl1):
      -cache:il1 dl1
      -cache:dl1 ul1:256:32:1:l -cache:dl2 ul2:1024:64:2:l



sim: ** fast forwarding 100000000 insts **
sim: ** starting performance simulation **

sim: ** simulation statistics **
sim_num_insn              100000001 # total number of instructions committed
sim_num_refs               30101334 # total number of loads and stores committed
sim_num_loads              23145477 # total number of loads committed
sim_num_stores         6955857.0000 # total number of stores committed
sim_num_branches           20651019 # total number of branches committed
sim_elapsed_time                 35 # total simulation time in seconds
sim_inst_rate          2857142.8857 # simulation speed (in insts/sec)
sim_total_insn            105774310 # total number of instructions executed
sim_total_refs             31151133 # total number of loads and stores executed
sim_total_loads            24103997 # total number of loads executed
sim_total_stores       7047136.0000 # total number of stores executed
sim_total_branches         21748443 # total number of branches executed
sim_cycle                 143256207 # total simulation time in cycles
sim_IPC                      0.6981 # instructions per cycle
sim_CPI                      1.4326 # cycles per instruction
sim_exec_BW                  0.7384 # total instructions (mis-spec + committed) per cycle
sim_IPB                      4.8424 # instruction per branch
IFQ_count                 541291355 # cumulative IFQ occupancy
IFQ_fcount                131234592 # cumulative IFQ full count
ifq_occupancy                3.7785 # avg IFQ occupancy (insn's)
ifq_rate                     0.7384 # avg IFQ dispatch rate (insn/cycle)
ifq_latency                  5.1174 # avg IFQ occupant latency (cycle's)
ifq_full                     0.9161 # fraction of time (cycle's) IFQ was full
RUU_count                2152681995 # cumulative RUU occupancy
RUU_fcount                119235179 # cumulative RUU full count
ruu_occupancy               15.0268 # avg RUU occupancy (insn's)
ruu_rate                     0.7384 # avg RUU dispatch rate (insn/cycle)
ruu_latency                 20.3517 # avg RUU occupant latency (cycle's)
ruu_full                     0.8323 # fraction of time (cycle's) RUU was full
LSQ_count                 963830592 # cumulative LSQ occupancy
LSQ_fcount                106271396 # cumulative LSQ full count
lsq_occupancy                6.7280 # avg LSQ occupancy (insn's)
lsq_rate                     0.7384 # avg LSQ dispatch rate (insn/cycle)
lsq_latency                  9.1121 # avg LSQ occupant latency (cycle's)
lsq_full                     0.7418 # fraction of time (cycle's) LSQ was full
sim_slip                 3227446733 # total number of slip cycles
avg_sim_slip                32.2745 # the average slip between issue and retirement
bpred_bimod.lookups        22068848 # total number of bpred lookups
bpred_bimod.updates        20651018 # total number of updates
bpred_bimod.addr_hits      19960443 # total number of address-predicted hits
bpred_bimod.dir_hits       19966708 # total number of direction-predicted hits (includes addr-hits)
bpred_bimod.misses           684310 # total number of misses
bpred_bimod.jr_hits         1138682 # total number of address-predicted hits for JR's
bpred_bimod.jr_seen         1144770 # total number of JR's seen
bpred_bimod.jr_non_ras_hits.PP         3060 # total number of address-predicted hits for non-RAS JR's
bpred_bimod.jr_non_ras_seen.PP         3065 # total number of non-RAS JR's seen
bpred_bimod.bpred_addr_rate    0.9666 # branch address-prediction rate (i.e., addr-hits/updates)
bpred_bimod.bpred_dir_rate    0.9669 # branch direction-prediction rate (i.e., all-hits/updates)
bpred_bimod.bpred_jr_rate    0.9947 # JR address-prediction rate (i.e., JR addr-hits/JRs seen)
bpred_bimod.bpred_jr_non_ras_rate.PP    0.9984 # non-RAS JR addr-pred rate (ie, non-RAS JR hits/JRs seen)
bpred_bimod.retstack_pushes      1242277 # total number of address pushed onto ret-addr stack
bpred_bimod.retstack_pops      1146966 # total number of address popped off of ret-addr stack
bpred_bimod.used_ras.PP      1141705 # total number of RAS predictions used
bpred_bimod.ras_hits.PP      1135622 # total number of RAS hits
bpred_bimod.ras_rate.PP    0.9947 # RAS prediction rate (i.e., RAS hits/used RAS)
il1.accesses              108819033 # total number of accesses
il1.hits                  108259092 # total number of hits
il1.misses                   559941 # total number of misses
il1.replacements             559630 # total number of replacements
il1.writebacks                    0 # total number of writebacks
il1.invalidations                 0 # total number of invalidations
il1.miss_rate                0.0051 # miss rate (i.e., misses/ref)
il1.repl_rate                0.0051 # replacement rate (i.e., repls/ref)
il1.wb_rate                  0.0000 # writeback rate (i.e., wrbks/ref)
il1.inv_rate                 0.0000 # invalidation rate (i.e., invs/ref)
dl1.accesses               27048638 # total number of accesses
dl1.hits                   23692132 # total number of hits
dl1.misses                  3356506 # total number of misses
dl1.replacements            3355994 # total number of replacements
dl1.writebacks                43877 # total number of writebacks
dl1.invalidations                 0 # total number of invalidations
dl1.miss_rate                0.1241 # miss rate (i.e., misses/ref)
dl1.repl_rate                0.1241 # replacement rate (i.e., repls/ref)
dl1.wb_rate                  0.0016 # writeback rate (i.e., wrbks/ref)
dl1.inv_rate                 0.0000 # invalidation rate (i.e., invs/ref)
ul2.accesses                3960324 # total number of accesses
ul2.hits                     618983 # total number of hits
ul2.misses                  3341341 # total number of misses
ul2.replacements            3337969 # total number of replacements
ul2.writebacks                27470 # total number of writebacks
ul2.invalidations                 0 # total number of invalidations
ul2.miss_rate                0.8437 # miss rate (i.e., misses/ref)
ul2.repl_rate                0.8429 # replacement rate (i.e., repls/ref)
ul2.wb_rate                  0.0069 # writeback rate (i.e., wrbks/ref)
ul2.inv_rate                 0.0000 # invalidation rate (i.e., invs/ref)
itlb.accesses             108819033 # total number of accesses
itlb.hits                 108819013 # total number of hits
itlb.misses                      20 # total number of misses
itlb.replacements                 0 # total number of replacements
itlb.writebacks                   0 # total number of writebacks
itlb.invalidations                0 # total number of invalidations
itlb.miss_rate               0.0000 # miss rate (i.e., misses/ref)
itlb.repl_rate               0.0000 # replacement rate (i.e., repls/ref)
itlb.wb_rate                 0.0000 # writeback rate (i.e., wrbks/ref)
itlb.inv_rate                0.0000 # invalidation rate (i.e., invs/ref)
dtlb.accesses              30456297 # total number of accesses
dtlb.hits                  28387734 # total number of hits
dtlb.misses                 2068563 # total number of misses
dtlb.replacements           2068435 # total number of replacements
dtlb.writebacks                   0 # total number of writebacks
dtlb.invalidations                0 # total number of invalidations
dtlb.miss_rate               0.0679 # miss rate (i.e., misses/ref)
dtlb.repl_rate               0.0679 # replacement rate (i.e., repls/ref)
dtlb.wb_rate                 0.0000 # writeback rate (i.e., wrbks/ref)
dtlb.inv_rate                0.0000 # invalidation rate (i.e., invs/ref)
sim_invalid_addrs                 0 # total non-speculative bogus addresses seen (debug var)
ld_text_base           0x0120000000 # program text (code) segment base
ld_text_size                 368640 # program text (code) size in bytes
ld_data_base           0x0140000000 # program initialized data segment base
ld_data_size                  83584 # program init'ed `.data' and uninit'ed `.bss' size in bytes
ld_stack_base          0x011ff9b000 # program stack segment base (highest address in stack)
ld_stack_size                 16384 # program initial stack size
ld_prog_entry          0x0120013040 # program entry point (initial PC)
ld_environ_base        0x011ff97000 # program environment base address address
ld_target_big_endian              0 # target executable endian-ness, non-zero if big endian
mem.page_count                 1809 # total number of pages allocated
mem.page_mem                 14472k # total size of memory pages allocated
mem.ptab_misses              251036 # total first level page table misses
mem.ptab_accesses        1144972682 # total page table accesses
mem.ptab_miss_rate           0.0002 # first level page table miss rate

sim-outorder: SimpleScalar/Alpha Tool Set version 3.0 of August, 2003.
[...]
dl1.accesses               25540251 # total number of accesses
dl1.hits                   25170274 # total number of hits
dl1.misses                   369977 # total number of misses
dl1.replacements             369465 # total number of replacements
dl1.writebacks               118053 # total number of writebacks
dl1.invalidations                 0 # total number of invalidations
dl1.miss_rate                0.0145 # miss rate (i.e., misses/ref)
dl1.repl_rate                0.0145 # replacement rate (i.e., repls/ref)
dl1.wb_rate                  0.0046 # writeback rate (i.e., wrbks/ref)
dl1.inv_rate                 0.0000 # invalidation rate (i.e., invs/ref)
ul2.accesses                2091950 # total number of accesses
ul2.hits                    1973664 # total number of hits
ul2.misses                   118286 # total number of misses
ul2.replacements             114190 # total number of replacements
ul2.writebacks                47729 # total number of writebacks
ul2.invalidations                 0 # total number of invalidations
ul2.miss_rate                0.0565 # miss rate (i.e., misses/ref)
ul2.repl_rate                0.0546 # replacement rate (i.e., repls/ref)
ul2.wb_rate                  0.0228 # writeback rate (i.e., wrbks/ref)
ul2.inv_rate                 0.0000 # invalidation rate (i.e., invs/ref)
itlb.accesses             139613058 # total number of accesses
itlb.hits                 139613027 # total number of hits
itlb.misses                      31 # total number of misses
itlb.replacements                 0 # total number of replacements
itlb.writebacks                   0 # total number of writebacks
itlb.invalidations                0 # total number of invalidations
itlb.miss_rate               0.0000 # miss rate (i.e., misses/ref)
itlb.repl_rate               0.0000 # replacement rate (i.e., repls/ref)
itlb.wb_rate                 0.0000 # writeback rate (i.e., wrbks/ref)
itlb.inv_rate                0.0000 # invalidation rate (i.e., invs/ref)
dtlb.accesses              25682621 # total number of accesses
dtlb.hits                  25661095 # total number of hits
dtlb.misses                   21526 # total number of misses
dtlb.replacements             21398 # total number of replacements
dtlb.writebacks                   0 # total number of writebacks
dtlb.invalidations                0 # total number of invalidations
dtlb.miss_rate               0.0008 # miss rate (i.e., misses/ref)
dtlb.repl_rate               0.0008 # replacement rate (i.e., repls/ref)
dtlb.wb_rate                 0.0000 # writeback rate (i.e., wrbks/ref)
dtlb.inv_rate                0.0000 # invalidation rate (i.e., invs/ref)
sim_invalid_addrs                 0 # total non-speculative bogus addresses seen (debug var)
ld_text_base           0x0120000000 # program text (code) segment base
ld_text_size                 409600 # program text (code) size in bytes
ld_data_base           0x0140000000 # program initialized data segment base
ld_data_size                  83856 # program init'ed `.data' and uninit'ed `.bss' size in bytes
ld_stack_base          0x011ff9b000 # program stack segment base (highest address in stack)
ld_stack_size                 16384 # program initial stack size
ld_prog_entry          0x0120015520 # program entry point (initial PC)
ld_environ_base        0x011ff97000 # program environment base address address
ld_target_big_endian              0 # target executable endian-ness, non-zero if big endian
mem.page_count                  428 # total number of pages allocated
mem.page_mem                  3424k # total size of memory pages allocated
mem.ptab_misses              248424 # total first level page table misses
mem.ptab_accesses        1062262170 # total page table accesses
mem.ptab_miss_rate           0.0002 # first level page table miss rate

sim-outorder: SimpleScalar/Alpha Tool Set version 3.0 of August, 2003.
Copyright (c) 1994-2003 by Todd M. Austin, Ph.D. and SimpleScalar, LLC.
All Rights Reserved. This version of SimpleScalar is licensed for academic
non-commercial use.  No portion of this work may be used by any commercial
entity, or for any commercial purpose, without the prior written permission
of SimpleScalar, LLC (info@simplescalar.com).

warning: section `.comment' ignored...
sim: command line: sim-outorder -fastfwd 100000000 -max:inst 100000000 -bpred bimod -bpred:bimod 2048 -mem:width 32 -mem:lat 300 2 ../../exe/vpr.exe net.in arch.in place.out dum.out -nodisp -place_only -init_t 5 -exit_t 0.005 -alpha_t 0.9412 -inner_num 2 

sim: simulation started @ Fri Oct 25 20:32:13 2024, options follow:

sim-outorder: This simulator implements a very detailed out-of-order issue
superscalar processor with a two-level memory system and speculative
execution support.  This simulator is a performance simulator, tracking the
latency of all pipeline operations.

# -config                     # load configuration from a file
# -dumpconfig                 # dump configuration to a file
# -h                    false # print help message    
# -v                    false # verbose operation     
# -d                    false # enable debug message  
# -i                    false # start in Dlite debugger
-seed                       1 # random number generator seed (0 for timer seed)
# -q                    false # initialize and terminate immediately
# -chkpt               <null> # restore EIO trace execution from <fname>
# -redir:sim           <null> # redirect simulator output to file (non-interactive only)
# -redir:prog          <null> # redirect simulated program output to file
-nice                       0 # simulator scheduling priority
-max:inst           100000000 # maximum number of inst's to execute
-fastfwd            100000000 # number of insts skipped before timing starts
# -ptrace              <null> # generate pipetrace, i.e., <fname|stdout|stderr> <range>
-fetch:ifqsize              4 # instruction fetch queue size (in insts)
-fetch:mplat                3 # extra branch mis-prediction latency
-fetch:speed                1 # speed of front-end of machine relative to execution core
-bpred                  bimod # branch predictor type {nottaken|taken|perfect|bimod|2lev|comb}
-bpred:bimod     2048 # bimodal predictor config (<table size>)
-bpred:2lev      1 1024 8 0 # 2-level predictor config (<l1size> <l2size> <hist_size> <xor>)
-bpred:comb      1024 # combining predictor config (<meta_table_size>)
-bpred:ras                  8 # return address stack size (0 for no return stack)
-bpred:btb       512 4 # BTB config (<num_sets> <associativity>)
# -bpred:spec_update       <null> # speculative predictors update in {ID|WB} (default non-spec)
-decode:width               4 # instruction decode B/W (insts/cycle)
-issue:width                4 # instruction issue B/W (insts/cycle)
-issue:inorder          false # run pipeline with in-order issue
-issue:wrongpath         true # issue instructions down wrong execution paths
-commit:width               4 # instruction commit B/W (insts/cycle)
-ruu:size                  16 # register update unit (RUU) size
-lsq:size                   8 # load/store queue (LSQ) size
-cache:dl1       dl1:128:32:4:l # l1 data cache config, i.e., {<config>|none}
-cache:dl1lat               1 # l1 data cache hit latency (in cycles)
-cache:dl2       ul2:1024:64:4:l # l2 data cache config, i.e., {<config>|none}
-cache:dl2lat               6 # l2 data cache hit latency (in cycles)
-cache:il1       il1:512:32:1:l # l1 inst cache config, i.e., {<config>|dl1|dl2|none}
-cache:il1lat               1 # l1 instruction cache hit latency (in cycles)
-cache:il2                dl2 # l2 instruction cache config, i.e., {<config>|dl2|none}
-cache:il2lat               6 # l2 instruction cache hit latency (in cycles)
-cache:flush            false # flush caches on system calls
-cache:icompress        false # convert 64-bit inst addresses to 32-bit inst equivalents
-mem:lat         300 2 # memory access latency (<first_chunk> <inter_chunk>)
-mem:width                 32 # memory access bus width (in bytes)
-tlb:itlb        itlb:16:4096:4:l # instruction TLB config, i.e., {<config>|none}
-tlb:dtlb        dtlb:32:4096:4:l # data TLB config, i.e., {<config>|none}
-tlb:lat                   30 # inst/data TLB miss latency (in cycles)
-res:ialu                   4 # total number of integer ALU's available
-res:imult                  1 # total number of integer multiplier/dividers available
-res:memport                2 # total number of memory system ports available (to CPU)
-res:fpalu                  4 # total number of floating point ALU's available
-res:fpmult                 1 # total number of floating point multiplier/dividers available
# -pcstat              <null> # profile stat(s) against text addr's (mult uses ok)
-bugcompat              false # operate in backward-compatible bugs mode (for testing only)

  Pipetrace range arguments are formatted as follows:

    {{@|#}<start>}:{{@|#|+}<end>}

  Both ends of the range are optional, if neither are specified, the entire
  execution is traced.  Ranges that start with a `@' designate an address
  range to be traced, those that start with an `#' designate a cycle count
  range.  All other range values represent an instruction count range.  The
  second argument, if specified with a `+', indicates a value relative
  to the first argument, e.g., 1000:+100 == 1000:1100.  Program symbols may
  be used in all contexts.

    Examples:   -ptrace FOO.trc #0:#1000
                -ptrace BAR.trc @2000:
                -ptrace BLAH.trc :1500
                -ptrace UXXE.trc :
                -ptrace FOOBAR.trc @main:+278

  Branch predictor configuration examples for 2-level predictor:
    Configurations:   N, M, W, X
      N   # entries in first level (# of shift register(s))
      W   width of shift register(s)
      M   # entries in 2nd level (# of counters, or other FSM)
      X   (yes-1/no-0) xor history and address for 2nd level index
    Sample predictors:
      GAg     : 1, W, 2^W, 0
      GAp     : 1, W, M (M > 2^W), 0
      PAg     : N, W, 2^W, 0
      PAp     : N, W, M (M == 2^(N+W)), 0
      gshare  : 1, W, 2^W, 1
  Predictor `comb' combines a bimodal and a 2-level predictor.

  The cache config parameter <config> has the following format:

    <name>:<nsets>:<bsize>:<assoc>:<repl>

    <name>   - name of the cache being defined
    <nsets>  - number of sets in the cache
    <bsize>  - block size of the cache
    <assoc>  - associativity of the cache
    <repl>   - block replacement strategy, 'l'-LRU, 'f'-FIFO, 'r'-random

    Examples:   -cache:dl1 dl1:4096:32:1:l
                -dtlb dtlb:128:4096:32:r

  Cache levels can be unified by pointing a level of the instruction cache
  hierarchy at the data cache hiearchy using the "dl1" and "dl2" cache
  configuration arguments.  Most sensible combinations are supported, e.g.,

    A unified l2 cache (il2 is pointed at dl2):
      -cache:il1 il1:128:64:1:l -cache:il2 dl2
      -cache:dl1 dl1:256:32:1:l -cache:dl2 ul2:1024:64:2:l

    Or, a fully unified cache hierarchy (il1 pointed at dl1):
      -cache:il1 dl1
      -cache:dl1 ul1:256:32:1:l -cache:dl2 ul2:1024:64:2:l



sim: ** fast forwarding 100000000 insts **
sim: ** starting performance simulation **

sim: ** simulation statistics **
sim_num_insn              100000002 # total number of instructions committed
sim_num_refs               23147907 # total number of loads and stores committed
sim_num_loads              18700740 # total number of loads committed
sim_num_stores         4447167.0000 # total number of stores committed
sim_num_branches           19702631 # total number of branches committed
sim_elapsed_time                 38 # total simulation time in seconds
sim_inst_rate          2631579.0000 # simulation speed (in insts/sec)
sim_total_insn            127062885 # total number of instructions executed
sim_total_refs             29764783 # total number of loads and stores executed
sim_total_loads            25031938 # total number of loads executed
sim_total_stores       4732845.0000 # total number of stores executed
sim_total_branches         24662480 # total number of branches executed
sim_cycle                  91612992 # total simulation time in cycles
sim_IPC                      1.0915 # instructions per cycle
sim_CPI                      0.9161 # cycles per instruction
sim_exec_BW                  1.3870 # total instructions (mis-spec + committed) per cycle
sim_IPB                      5.0755 # instruction per branch
IFQ_count                 276003785 # cumulative IFQ occupancy
IFQ_fcount                 62178273 # cumulative IFQ full count
ifq_occupancy                3.0127 # avg IFQ occupancy (insn's)
ifq_rate                     1.3870 # avg IFQ dispatch rate (insn/cycle)
ifq_latency                  2.1722 # avg IFQ occupant latency (cycle's)
ifq_full                     0.6787 # fraction of time (cycle's) IFQ was full
RUU_count                1044471197 # cumulative RUU occupancy
RUU_fcount                 44863708 # cumulative RUU full count
ruu_occupancy               11.4009 # avg RUU occupancy (insn's)
ruu_rate                     1.3870 # avg RUU dispatch rate (insn/cycle)
ruu_latency                  8.2201 # avg RUU occupant latency (cycle's)
ruu_full                     0.4897 # fraction of time (cycle's) RUU was full
LSQ_count                 274888238 # cumulative LSQ occupancy
LSQ_fcount                  4397890 # cumulative LSQ full count
lsq_occupancy                3.0005 # avg LSQ occupancy (insn's)
lsq_rate                     1.3870 # avg LSQ dispatch rate (insn/cycle)
lsq_latency                  2.1634 # avg LSQ occupant latency (cycle's)
lsq_full                     0.0480 # fraction of time (cycle's) LSQ was full
sim_slip                 1315232630 # total number of slip cycles
avg_sim_slip                13.1523 # the average slip between issue and retirement
bpred_bimod.lookups        26078568 # total number of bpred lookups
bpred_bimod.updates        19702630 # total number of updates
bpred_bimod.addr_hits      16894823 # total number of address-predicted hits
bpred_bimod.dir_hits       16947974 # total number of direction-predicted hits (includes addr-hits)
bpred_bimod.misses          2754656 # total number of misses
bpred_bimod.jr_hits         1356320 # total number of address-predicted hits for JR's
bpred_bimod.jr_seen         1409179 # total number of JR's seen
bpred_bimod.jr_non_ras_hits.PP        13654 # total number of address-predicted hits for non-RAS JR's
bpred_bimod.jr_non_ras_seen.PP        13673 # total number of non-RAS JR's seen
bpred_bimod.bpred_addr_rate    0.8575 # branch address-prediction rate (i.e., addr-hits/updates)
bpred_bimod.bpred_dir_rate    0.8602 # branch direction-prediction rate (i.e., all-hits/updates)
bpred_bimod.bpred_jr_rate    0.9625 # JR address-prediction rate (i.e., JR addr-hits/JRs seen)
bpred_bimod.bpred_jr_non_ras_rate.PP    0.9986 # non-RAS JR addr-pred rate (ie, non-RAS JR hits/JRs seen)
bpred_bimod.retstack_pushes      1566353 # total number of address pushed onto ret-addr stack
bpred_bimod.retstack_pops      1612138 # total number of address popped off of ret-addr stack
bpred_bimod.used_ras.PP      1395506 # total number of RAS predictions used
bpred_bimod.ras_hits.PP      1342666 # total number of RAS hits
bpred_bimod.ras_rate.PP    0.9621 # RAS prediction rate (i.e., RAS hits/used RAS)
il1.accesses              138069554 # total number of accesses
il1.hits                  136514359 # total number of hits
il1.misses                  1555195 # total number of misses
il1.replacements            1554751 # total number of replacements
il1.writebacks                    0 # total number of writebacks
il1.invalidations                 0 # total number of invalidations
il1.miss_rate                0.0113 # miss rate (i.e., misses/ref)
il1.repl_rate                0.0113 # replacement rate (i.e., repls/ref)
il1.wb_rate                  0.0000 # writeback rate (i.e., wrbks/ref)
il1.inv_rate                 0.0000 # invalidation rate (i.e., invs/ref)
dl1.accesses               25488450 # total number of accesses
dl1.hits                   25118479 # total number of hits
dl1.misses                   369971 # total number of misses
dl1.replacements             369459 # total number of replacements
dl1.writebacks               118053 # total number of writebacks
dl1.invalidations                 0 # total number of invalidations
dl1.miss_rate                0.0145 # miss rate (i.e., misses/ref)
dl1.repl_rate                0.0145 # replacement rate (i.e., repls/ref)
dl1.wb_rate                  0.0046 # writeback rate (i.e., wrbks/ref)
dl1.inv_rate                 0.0000 # invalidation rate (i.e., invs/ref)
ul2.accesses                2043219 # total number of accesses
ul2.hits                    1924951 # total number of hits
ul2.misses                   118268 # total number of misses
ul2.replacements             114172 # total number of replacements
ul2.writebacks                47726 # total number of writebacks
ul2.invalidations                 0 # total number of invalidations
ul2.miss_rate                0.0579 # miss rate (i.e., misses/ref)
ul2.repl_rate                0.0559 # replacement rate (i.e., repls/ref)
ul2.wb_rate                  0.0234 # writeback rate (i.e., wrbks/ref)
ul2.inv_rate                 0.0000 # invalidation rate (i.e., invs/ref)
itlb.accesses             138069554 # total number of accesses
itlb.hits                 138069523 # total number of hits
itlb.misses                      31 # total number of misses
itlb.replacements                 0 # total number of replacements
itlb.writebacks                   0 # total number of writebacks
itlb.invalidations                0 # total number of invalidations
itlb.miss_rate               0.0000 # miss rate (i.e., misses/ref)
itlb.repl_rate               0.0000 # replacement rate (i.e., repls/ref)
itlb.wb_rate                 0.0000 # writeback rate (i.e., wrbks/ref)
itlb.inv_rate                0.0000 # invalidation rate (i.e., invs/ref)
dtlb.accesses              25630823 # total number of accesses
dtlb.hits                  25609297 # total number of hits
dtlb.misses                   21526 # total number of misses
dtlb.replacements             21398 # total number of replacements
dtlb.writebacks                   0 # total number of writebacks
dtlb.invalidations                0 # total number of invalidations
dtlb.miss_rate               0.0008 # miss rate (i.e., misses/ref)
dtlb.repl_rate               0.0008 # replacement rate (i.e., repls/ref)
dtlb.wb_rate                 0.0000 # writeback rate (i.e., wrbks/ref)
dtlb.inv_rate                0.0000 # invalidation rate (i.e., invs/ref)
sim_invalid_addrs                 0 # total non-speculative bogus addresses seen (debug var)
ld_text_base           0x0120000000 # program text (code) segment base
ld_text_size                 409600 # program text (code) size in bytes
ld_data_base           0x0140000000 # program initialized data segment base
ld_data_size                  83856 # program init'ed `.data' and uninit'ed `.bss' size in bytes
ld_stack_base          0x011ff9b000 # program stack segment base (highest address in stack)
ld_stack_size                 16384 # program initial stack size
ld_prog_entry          0x0120015520 # program entry point (initial PC)
ld_environ_base        0x011ff97000 # program environment base address address
ld_target_big_endian              0 # target executable endian-ness, non-zero if big endian
mem.page_count                  428 # total number of pages allocated
mem.page_mem                  3424k # total size of memory pages allocated
mem.ptab_misses              248422 # total first level page table misses
mem.ptab_accesses        1058725184 # total page table accesses
mem.ptab_miss_rate           0.0002 # first level page table miss rate

