sim-outorder: SimpleScalar/Alpha Tool Set version 3.0 of August, 2003.
Copyright (c) 1994-2003 by Todd M. Austin, Ph.D. and SimpleScalar, LLC.
All Rights Reserved. This version of SimpleScalar is licensed for academic
non-commercial use.  No portion of this work may be used by any commercial
entity, or for any commercial purpose, without the prior written permission
of SimpleScalar, LLC (info@simplescalar.com).

warning: section `.comment' ignored...
sim: command line: sim-outorder -fastfwd 100000000 -max:inst 100000000 -bpred 2lev -bpred:2lev 1 8 3 0 -mem:width 32 -mem:lat 300 2 ../../exe/ammp.exe 

sim: simulation started @ Fri Oct 25 20:46:43 2024, options follow:

sim-outorder: This simulator implements a very detailed out-of-order issue
superscalar processor with a two-level memory system and speculative
execution support.  This simulator is a performance simulator, tracking the
latency of all pipeline operations.

# -config                     # load configuration from a file
# -dumpconfig                 # dump configuration to a file
# -h                    false # print help message    
# -v                    false # verbose operation     
# -d                    false # enable debug message  
# -i                    false # start in Dlite debugger
-seed                       1 # random number generator seed (0 for timer seed)
# -q                    false # initialize and terminate immediately
# -chkpt               <null> # restore EIO trace execution from <fname>
# -redir:sim           <null> # redirect simulator output to file (non-interactive only)
# -redir:prog          <null> # redirect simulated program output to file
-nice                       0 # simulator scheduling priority
-max:inst           100000000 # maximum number of inst's to execute
-fastfwd            100000000 # number of insts skipped before timing starts
# -ptrace              <null> # generate pipetrace, i.e., <fname|stdout|stderr> <range>
-fetch:ifqsize              4 # instruction fetch queue size (in insts)
-fetch:mplat                3 # extra branch mis-prediction latency
-fetch:speed                1 # speed of front-end of machine relative to execution core
-bpred                   2lev # branch predictor type {nottaken|taken|perfect|bimod|2lev|comb}
-bpred:bimod     2048 # bimodal predictor config (<table size>)
-bpred:2lev      1 8 3 0 # 2-level predictor config (<l1size> <l2size> <hist_size> <xor>)
-bpred:comb      1024 # combining predictor config (<meta_table_size>)
-bpred:ras                  8 # return address stack size (0 for no return stack)
-bpred:btb       512 4 # BTB config (<num_sets> <associativity>)
# -bpred:spec_update       <null> # speculative predictors update in {ID|WB} (default non-spec)
-decode:width               4 # instruction decode B/W (insts/cycle)
-issue:width                4 # instruction issue B/W (insts/cycle)
-issue:inorder          false # run pipeline with in-order issue
-issue:wrongpath         true # issue instructions down wrong execution paths
-commit:width               4 # instruction commit B/W (insts/cycle)
-ruu:size                  16 # register update unit (RUU) size
-lsq:size                   8 # load/store queue (LSQ) size
-cache:dl1       dl1:128:32:4:l # l1 data cache config, i.e., {<config>|none}
-cache:dl1lat               1 # l1 data cache hit latency (in cycles)
-cache:dl2       ul2:1024:64:4:l # l2 data cache config, i.e., {<config>|none}
-cache:dl2lat               6 # l2 data cache hit latency (in cycles)
-cache:il1       il1:512:32:1:l # l1 inst cache config, i.e., {<config>|dl1|dl2|none}
-cache:il1lat               1 # l1 instruction cache hit latency (in cycles)
-cache:il2                dl2 # l2 instruction cache config, i.e., {<config>|dl2|none}
-cache:il2lat               6 # l2 instruction cache hit latency (in cycles)
-cache:flush            false # flush caches on system calls
-cache:icompress        false # convert 64-bit inst addresses to 32-bit inst equivalents
-mem:lat         300 2 # memory access latency (<first_chunk> <inter_chunk>)
-mem:width                 32 # memory access bus width (in bytes)
-tlb:itlb        itlb:16:4096:4:l # instruction TLB config, i.e., {<config>|none}
-tlb:dtlb        dtlb:32:4096:4:l # data TLB config, i.e., {<config>|none}
-tlb:lat                   30 # inst/data TLB miss latency (in cycles)
-res:ialu                   4 # total number of integer ALU's available
-res:imult                  1 # total number of integer multiplier/dividers available
-res:memport                2 # total number of memory system ports available (to CPU)
-res:fpalu                  4 # total number of floating point ALU's available
-res:fpmult                 1 # total number of floating point multiplier/dividers available
# -pcstat              <null> # profile stat(s) against text addr's (mult uses ok)
-bugcompat              false # operate in backward-compatible bugs mode (for testing only)

  Pipetrace range arguments are formatted as follows:

    {{@|#}<start>}:{{@|#|+}<end>}

  Both ends of the range are optional, if neither are specified, the entire
  execution is traced.  Ranges that start with a `@' designate an address
  range to be traced, those that start with an `#' designate a cycle count
  range.  All other range values represent an instruction count range.  The
  second argument, if specified with a `+', indicates a value relative
  to the first argument, e.g., 1000:+100 == 1000:1100.  Program symbols may
  be used in all contexts.

    Examples:   -ptrace FOO.trc #0:#1000
                -ptrace BAR.trc @2000:
                -ptrace BLAH.trc :1500
                -ptrace UXXE.trc :
                -ptrace FOOBAR.trc @main:+278

  Branch predictor configuration examples for 2-level predictor:
    Configurations:   N, M, W, X
      N   # entries in first level (# of shift register(s))
      W   width of shift register(s)
      M   # entries in 2nd level (# of counters, or other FSM)
      X   (yes-1/no-0) xor history and address for 2nd level index
    Sample predictors:
      GAg     : 1, W, 2^W, 0
      GAp     : 1, W, M (M > 2^W), 0
      PAg     : N, W, 2^W, 0
      PAp     : N, W, M (M == 2^(N+W)), 0
      gshare  : 1, W, 2^W, 1
  Predictor `comb' combines a bimodal and a 2-level predictor.

  The cache config parameter <config> has the following format:

    <name>:<nsets>:<bsize>:<assoc>:<repl>

    <name>   - name of the cache being defined
    <nsets>  - number of sets in the cache
    <bsize>  - block size of the cache
    <assoc>  - associativity of the cache
    <repl>   - block replacement strategy, 'l'-LRU, 'f'-FIFO, 'r'-random

    Examples:   -cache:dl1 dl1:4096:32:1:l
                -dtlb dtlb:128:4096:32:r

  Cache levels can be unified by pointing a level of the instruction cache
  hierarchy at the data cache hiearchy using the "dl1" and "dl2" cache
  configuration arguments.  Most sensible combinations are supported, e.g.,

    A unified l2 cache (il2 is pointed at dl2):
      -cache:il1 il1:128:64:1:l -cache:il2 dl2
      -cache:dl1 dl1:256:32:1:l -cache:dl2 ul2:1024:64:2:l

    Or, a fully unified cache hierarchy (il1 pointed at dl1):
      -cache:il1 dl1
      -cache:dl1 ul1:256:32:1:l -cache:dl2 ul2:1024:64:2:l



sim: ** fast forwarding 100000000 insts **
sim: ** starting performance simulation **

sim: ** simulation statistics **
sim_num_insn              100000001 # total number of instructions committed
sim_num_refs               30101334 # total number of loads and stores committed
sim_num_loads              23145477 # total number of loads committed
sim_num_stores         6955857.0000 # total number of stores committed
sim_num_branches           20651019 # total number of branches committed
sim_elapsed_time                144 # total simulation time in seconds
sim_inst_rate           694444.4514 # simulation speed (in insts/sec)
sim_total_insn            118192351 # total number of instructions executed
sim_total_refs             34536485 # total number of loads and stores executed
sim_total_loads            26731591 # total number of loads executed
sim_total_stores       7804894.0000 # total number of stores executed
sim_total_branches         24248559 # total number of branches executed
sim_cycle                1052317570 # total simulation time in cycles
sim_IPC                      0.0950 # instructions per cycle
sim_CPI                     10.5232 # cycles per instruction
sim_exec_BW                  0.1123 # total instructions (mis-spec + committed) per cycle
sim_IPB                      4.8424 # instruction per branch
IFQ_count                4066481656 # cumulative IFQ occupancy
IFQ_fcount               1007636840 # cumulative IFQ full count
ifq_occupancy                3.8643 # avg IFQ occupancy (insn's)
ifq_rate                     0.1123 # avg IFQ dispatch rate (insn/cycle)
ifq_latency                 34.4056 # avg IFQ occupant latency (cycle's)
ifq_full                     0.9575 # fraction of time (cycle's) IFQ was full
RUU_count               16378660334 # cumulative RUU occupancy
RUU_fcount                989280144 # cumulative RUU full count
ruu_occupancy               15.5644 # avg RUU occupancy (insn's)
ruu_rate                     0.1123 # avg RUU dispatch rate (insn/cycle)
ruu_latency                138.5763 # avg RUU occupant latency (cycle's)
ruu_full                     0.9401 # fraction of time (cycle's) RUU was full
LSQ_count                8041821331 # cumulative LSQ occupancy
LSQ_fcount                968582061 # cumulative LSQ full count
lsq_occupancy                7.6420 # avg LSQ occupancy (insn's)
lsq_rate                     0.1123 # avg LSQ dispatch rate (insn/cycle)
lsq_latency                 68.0401 # avg LSQ occupant latency (cycle's)
lsq_full                     0.9204 # fraction of time (cycle's) LSQ was full
sim_slip                24322130317 # total number of slip cycles
avg_sim_slip               243.2213 # the average slip between issue and retirement
bpred_2lev.lookups         25332960 # total number of bpred lookups
bpred_2lev.updates         20651018 # total number of updates
bpred_2lev.addr_hits       13650305 # total number of address-predicted hits
bpred_2lev.dir_hits        13695778 # total number of direction-predicted hits (includes addr-hits)
bpred_2lev.misses           6955240 # total number of misses
bpred_2lev.jr_hits          1099487 # total number of address-predicted hits for JR's
bpred_2lev.jr_seen          1144770 # total number of JR's seen
bpred_2lev.jr_non_ras_hits.PP         3060 # total number of address-predicted hits for non-RAS JR's
bpred_2lev.jr_non_ras_seen.PP         3065 # total number of non-RAS JR's seen
bpred_2lev.bpred_addr_rate    0.6610 # branch address-prediction rate (i.e., addr-hits/updates)
bpred_2lev.bpred_dir_rate    0.6632 # branch direction-prediction rate (i.e., all-hits/updates)
bpred_2lev.bpred_jr_rate    0.9604 # JR address-prediction rate (i.e., JR addr-hits/JRs seen)
bpred_2lev.bpred_jr_non_ras_rate.PP    0.9984 # non-RAS JR addr-pred rate (ie, non-RAS JR hits/JRs seen)
bpred_2lev.retstack_pushes      1519968 # total number of address pushed onto ret-addr stack
bpred_2lev.retstack_pops      1429792 # total number of address popped off of ret-addr stack
bpred_2lev.used_ras.PP      1141705 # total number of RAS predictions used
bpred_2lev.ras_hits.PP      1096427 # total number of RAS hits
bpred_2lev.ras_rate.PP    0.9603 # RAS prediction rate (i.e., RAS hits/used RAS)
il1.accesses              124930842 # total number of accesses
il1.hits                  124296691 # total number of hits
il1.misses                   634151 # total number of misses
il1.replacements             633830 # total number of replacements
il1.writebacks                    0 # total number of writebacks
il1.invalidations                 0 # total number of invalidations
il1.miss_rate                0.0051 # miss rate (i.e., misses/ref)
il1.repl_rate                0.0051 # replacement rate (i.e., repls/ref)
il1.wb_rate                  0.0000 # writeback rate (i.e., wrbks/ref)
il1.inv_rate                 0.0000 # invalidation rate (i.e., invs/ref)
dl1.accesses               28131402 # total number of accesses
dl1.hits                   24774294 # total number of hits
dl1.misses                  3357108 # total number of misses
dl1.replacements            3356596 # total number of replacements
dl1.writebacks                43888 # total number of writebacks
dl1.invalidations                 0 # total number of invalidations
dl1.miss_rate                0.1193 # miss rate (i.e., misses/ref)
dl1.repl_rate                0.1193 # replacement rate (i.e., repls/ref)
dl1.wb_rate                  0.0016 # writeback rate (i.e., wrbks/ref)
dl1.inv_rate                 0.0000 # invalidation rate (i.e., invs/ref)
ul2.accesses                4035147 # total number of accesses
ul2.hits                     693635 # total number of hits
ul2.misses                  3341512 # total number of misses
ul2.replacements            3338140 # total number of replacements
ul2.writebacks                27460 # total number of writebacks
ul2.invalidations                 0 # total number of invalidations
ul2.miss_rate                0.8281 # miss rate (i.e., misses/ref)
ul2.repl_rate                0.8273 # replacement rate (i.e., repls/ref)
ul2.wb_rate                  0.0068 # writeback rate (i.e., wrbks/ref)
ul2.inv_rate                 0.0000 # invalidation rate (i.e., invs/ref)
itlb.accesses             124930842 # total number of accesses
itlb.hits                 124930822 # total number of hits
itlb.misses                      20 # total number of misses
itlb.replacements                 0 # total number of replacements
itlb.writebacks                   0 # total number of writebacks
itlb.invalidations                0 # total number of invalidations
itlb.miss_rate               0.0000 # miss rate (i.e., misses/ref)
itlb.repl_rate               0.0000 # replacement rate (i.e., repls/ref)
itlb.wb_rate                 0.0000 # writeback rate (i.e., wrbks/ref)
itlb.inv_rate                0.0000 # invalidation rate (i.e., invs/ref)
dtlb.accesses              31537606 # total number of accesses
dtlb.hits                  29468675 # total number of hits
dtlb.misses                 2068931 # total number of misses
dtlb.replacements           2068803 # total number of replacements
dtlb.writebacks                   0 # total number of writebacks
dtlb.invalidations                0 # total number of invalidations
dtlb.miss_rate               0.0656 # miss rate (i.e., misses/ref)
dtlb.repl_rate               0.0656 # replacement rate (i.e., repls/ref)
dtlb.wb_rate                 0.0000 # writeback rate (i.e., wrbks/ref)
dtlb.inv_rate                0.0000 # invalidation rate (i.e., invs/ref)
sim_invalid_addrs                 0 # total non-speculative bogus addresses seen (debug var)
ld_text_base           0x0120000000 # program text (code) segment base
ld_text_size                 368640 # program text (code) size in bytes
ld_data_base           0x0140000000 # program initialized data segment base
ld_data_size                  83584 # program init'ed `.data' and uninit'ed `.bss' size in bytes
ld_stack_base          0x011ff9b000 # program stack segment base (highest address in stack)
ld_stack_size                 16384 # program initial stack size
ld_prog_entry          0x0120013040 # program entry point (initial PC)
ld_environ_base        0x011ff97000 # program environment base address address
ld_target_big_endian              0 # target executable endian-ness, non-zero if big endian
mem.page_count                 1809 # total number of pages allocated
mem.page_mem                 14472k # total size of memory pages allocated
mem.ptab_misses              254550 # total first level page table misses
mem.ptab_accesses        1186658866 # total page table accesses
mem.ptab_miss_rate           0.0002 # first level page table miss rate

sim-outorder: SimpleScalar/Alpha Tool Set version 3.0 of August, 2003.
Copyright (c) 1994-2003 by Todd M. Austin, Ph.D. and SimpleScalar, LLC.
All Rights Reserved. This version of SimpleScalar is licensed for academic
non-commercial use.  No portion of this work may be used by any commercial
entity, or for any commercial purpose, without the prior written permission
of SimpleScalar, LLC (info@simplescalar.com).

warning: section `.comment' ignored...
sim: command line: sim-outorder -fastfwd 100000000 -max:inst 100000000 -bpred 2lev -bpred:2lev 1 32 5 0 -mem:width 32 -mem:lat 300 2 ../../exe/ammp.exe 

sim: simulation started @ Fri Oct 25 20:49:07 2024, options follow:

sim-outorder: This simulator implements a very detailed out-of-order issue
superscalar processor with a two-level memory system and speculative
execution support.  This simulator is a performance simulator, tracking the
latency of all pipeline operations.

# -config                     # load configuration from a file
# -dumpconfig                 # dump configuration to a file
# -h                    false # print help message    
# -v                    false # verbose operation     
# -d                    false # enable debug message  
# -i                    false # start in Dlite debugger
-seed                       1 # random number generator seed (0 for timer seed)
# -q                    false # initialize and terminate immediately
# -chkpt               <null> # restore EIO trace execution from <fname>
# -redir:sim           <null> # redirect simulator output to file (non-interactive only)
# -redir:prog          <null> # redirect simulated program output to file
-nice                       0 # simulator scheduling priority
-max:inst           100000000 # maximum number of inst's to execute
-fastfwd            100000000 # number of insts skipped before timing starts
# -ptrace              <null> # generate pipetrace, i.e., <fname|stdout|stderr> <range>
-fetch:ifqsize              4 # instruction fetch queue size (in insts)
-fetch:mplat                3 # extra branch mis-prediction latency
-fetch:speed                1 # speed of front-end of machine relative to execution core
-bpred                   2lev # branch predictor type {nottaken|taken|perfect|bimod|2lev|comb}
-bpred:bimod     2048 # bimodal predictor config (<table size>)
-bpred:2lev      1 32 5 0 # 2-level predictor config (<l1size> <l2size> <hist_size> <xor>)
-bpred:comb      1024 # combining predictor config (<meta_table_size>)
-bpred:ras                  8 # return address stack size (0 for no return stack)
-bpred:btb       512 4 # BTB config (<num_sets> <associativity>)
# -bpred:spec_update       <null> # speculative predictors update in {ID|WB} (default non-spec)
-decode:width               4 # instruction decode B/W (insts/cycle)
-issue:width                4 # instruction issue B/W (insts/cycle)
-issue:inorder          false # run pipeline with in-order issue
-issue:wrongpath         true # issue instructions down wrong execution paths
-commit:width               4 # instruction commit B/W (insts/cycle)
-ruu:size                  16 # register update unit (RUU) size
-lsq:size                   8 # load/store queue (LSQ) size
-cache:dl1       dl1:128:32:4:l # l1 data cache config, i.e., {<config>|none}
-cache:dl1lat               1 # l1 data cache hit latency (in cycles)
-cache:dl2       ul2:1024:64:4:l # l2 data cache config, i.e., {<config>|none}
-cache:dl2lat               6 # l2 data cache hit latency (in cycles)
-cache:il1       il1:512:32:1:l # l1 inst cache config, i.e., {<config>|dl1|dl2|none}
-cache:il1lat               1 # l1 instruction cache hit latency (in cycles)
-cache:il2                dl2 # l2 instruction cache config, i.e., {<config>|dl2|none}
-cache:il2lat               6 # l2 instruction cache hit latency (in cycles)
-cache:flush            false # flush caches on system calls
-cache:icompress        false # convert 64-bit inst addresses to 32-bit inst equivalents
-mem:lat         300 2 # memory access latency (<first_chunk> <inter_chunk>)
-mem:width                 32 # memory access bus width (in bytes)
-tlb:itlb        itlb:16:4096:4:l # instruction TLB config, i.e., {<config>|none}
-tlb:dtlb        dtlb:32:4096:4:l # data TLB config, i.e., {<config>|none}
-tlb:lat                   30 # inst/data TLB miss latency (in cycles)
-res:ialu                   4 # total number of integer ALU's available
-res:imult                  1 # total number of integer multiplier/dividers available
-res:memport                2 # total number of memory system ports available (to CPU)
-res:fpalu                  4 # total number of floating point ALU's available
-res:fpmult                 1 # total number of floating point multiplier/dividers available
# -pcstat              <null> # profile stat(s) against text addr's (mult uses ok)
-bugcompat              false # operate in backward-compatible bugs mode (for testing only)

  Pipetrace range arguments are formatted as follows:

    {{@|#}<start>}:{{@|#|+}<end>}

  Both ends of the range are optional, if neither are specified, the entire
  execution is traced.  Ranges that start with a `@' designate an address
  range to be traced, those that start with an `#' designate a cycle count
  range.  All other range values represent an instruction count range.  The
  second argument, if specified with a `+', indicates a value relative
  to the first argument, e.g., 1000:+100 == 1000:1100.  Program symbols may
  be used in all contexts.

    Examples:   -ptrace FOO.trc #0:#1000
                -ptrace BAR.trc @2000:
                -ptrace BLAH.trc :1500
                -ptrace UXXE.trc :
                -ptrace FOOBAR.trc @main:+278

  Branch predictor configuration examples for 2-level predictor:
    Configurations:   N, M, W, X
      N   # entries in first level (# of shift register(s))
      W   width of shift register(s)
      M   # entries in 2nd level (# of counters, or other FSM)
      X   (yes-1/no-0) xor history and address for 2nd level index
    Sample predictors:
      GAg     : 1, W, 2^W, 0
      GAp     : 1, W, M (M > 2^W), 0
      PAg     : N, W, 2^W, 0
      PAp     : N, W, M (M == 2^(N+W)), 0
      gshare  : 1, W, 2^W, 1
  Predictor `comb' combines a bimodal and a 2-level predictor.

  The cache config parameter <config> has the following format:

    <name>:<nsets>:<bsize>:<assoc>:<repl>

    <name>   - name of the cache being defined
    <nsets>  - number of sets in the cache
    <bsize>  - block size of the cache
    <assoc>  - associativity of the cache
    <repl>   - block replacement strategy, 'l'-LRU, 'f'-FIFO, 'r'-random

    Examples:   -cache:dl1 dl1:4096:32:1:l
                -dtlb dtlb:128:4096:32:r

  Cache levels can be unified by pointing a level of the instruction cache
  hierarchy at the data cache hiearchy using the "dl1" and "dl2" cache
  configuration arguments.  Most sensible combinations are supported, e.g.,

    A unified l2 cache (il2 is pointed at dl2):
      -cache:il1 il1:128:64:1:l -cache:il2 dl2
      -cache:dl1 dl1:256:32:1:l -cache:dl2 ul2:1024:64:2:l

    Or, a fully unified cache hierarchy (il1 pointed at dl1):
      -cache:il1 dl1
      -cache:dl1 ul1:256:32:1:l -cache:dl2 ul2:1024:64:2:l



sim: ** fast forwarding 100000000 insts **
sim: ** starting performance simulation **

sim: ** simulation statistics **
sim_num_insn              100000001 # total number of instructions committed
sim_num_refs               30101334 # total number of loads and stores committed
sim_num_loads              23145477 # total number of loads committed
sim_num_stores         6955857.0000 # total number of stores committed
sim_num_branches           20651019 # total number of branches committed
sim_elapsed_time                146 # total simulation time in seconds
sim_inst_rate           684931.5137 # simulation speed (in insts/sec)
sim_total_insn            118729035 # total number of instructions executed
sim_total_refs             35235315 # total number of loads and stores executed
sim_total_loads            26863492 # total number of loads executed
sim_total_stores       8371823.0000 # total number of stores executed
sim_total_branches         24137074 # total number of branches executed
sim_cycle                1051756625 # total simulation time in cycles
sim_IPC                      0.0951 # instructions per cycle
sim_CPI                     10.5176 # cycles per instruction
sim_exec_BW                  0.1129 # total instructions (mis-spec + committed) per cycle
sim_IPB                      4.8424 # instruction per branch
IFQ_count                4070972252 # cumulative IFQ occupancy
IFQ_fcount               1009225015 # cumulative IFQ full count
ifq_occupancy                3.8706 # avg IFQ occupancy (insn's)
ifq_rate                     0.1129 # avg IFQ dispatch rate (insn/cycle)
ifq_latency                 34.2879 # avg IFQ occupant latency (cycle's)
ifq_full                     0.9596 # fraction of time (cycle's) IFQ was full
RUU_count               16388690591 # cumulative RUU occupancy
RUU_fcount                992258530 # cumulative RUU full count
ruu_occupancy               15.5822 # avg RUU occupancy (insn's)
ruu_rate                     0.1129 # avg RUU dispatch rate (insn/cycle)
ruu_latency                138.0344 # avg RUU occupant latency (cycle's)
ruu_full                     0.9434 # fraction of time (cycle's) RUU was full
LSQ_count                8047681412 # cumulative LSQ occupancy
LSQ_fcount                969643544 # cumulative LSQ full count
lsq_occupancy                7.6517 # avg LSQ occupancy (insn's)
lsq_rate                     0.1129 # avg LSQ dispatch rate (insn/cycle)
lsq_latency                 67.7819 # avg LSQ occupant latency (cycle's)
lsq_full                     0.9219 # fraction of time (cycle's) LSQ was full
sim_slip                24336731274 # total number of slip cycles
avg_sim_slip               243.3673 # the average slip between issue and retirement
bpred_2lev.lookups         25226255 # total number of bpred lookups
bpred_2lev.updates         20651018 # total number of updates
bpred_2lev.addr_hits       14068850 # total number of address-predicted hits
bpred_2lev.dir_hits        14103959 # total number of direction-predicted hits (includes addr-hits)
bpred_2lev.misses           6547059 # total number of misses
bpred_2lev.jr_hits          1109848 # total number of address-predicted hits for JR's
bpred_2lev.jr_seen          1144770 # total number of JR's seen
bpred_2lev.jr_non_ras_hits.PP         3060 # total number of address-predicted hits for non-RAS JR's
bpred_2lev.jr_non_ras_seen.PP         3065 # total number of non-RAS JR's seen
bpred_2lev.bpred_addr_rate    0.6813 # branch address-prediction rate (i.e., addr-hits/updates)
bpred_2lev.bpred_dir_rate    0.6830 # branch direction-prediction rate (i.e., all-hits/updates)
bpred_2lev.bpred_jr_rate    0.9695 # JR address-prediction rate (i.e., JR addr-hits/JRs seen)
bpred_2lev.bpred_jr_non_ras_rate.PP    0.9984 # non-RAS JR addr-pred rate (ie, non-RAS JR hits/JRs seen)
bpred_2lev.retstack_pushes      1520716 # total number of address pushed onto ret-addr stack
bpred_2lev.retstack_pops      1312088 # total number of address popped off of ret-addr stack
bpred_2lev.used_ras.PP      1141705 # total number of RAS predictions used
bpred_2lev.ras_hits.PP      1106788 # total number of RAS hits
bpred_2lev.ras_rate.PP    0.9694 # RAS prediction rate (i.e., RAS hits/used RAS)
il1.accesses              125202189 # total number of accesses
il1.hits                  124566171 # total number of hits
il1.misses                   636018 # total number of misses
il1.replacements             635697 # total number of replacements
il1.writebacks                    0 # total number of writebacks
il1.invalidations                 0 # total number of invalidations
il1.miss_rate                0.0051 # miss rate (i.e., misses/ref)
il1.repl_rate                0.0051 # replacement rate (i.e., repls/ref)
il1.wb_rate                  0.0000 # writeback rate (i.e., wrbks/ref)
il1.inv_rate                 0.0000 # invalidation rate (i.e., invs/ref)
dl1.accesses               28187542 # total number of accesses
dl1.hits                   24830300 # total number of hits
dl1.misses                  3357242 # total number of misses
dl1.replacements            3356730 # total number of replacements
dl1.writebacks                43916 # total number of writebacks
dl1.invalidations                 0 # total number of invalidations
dl1.miss_rate                0.1191 # miss rate (i.e., misses/ref)
dl1.repl_rate                0.1191 # replacement rate (i.e., repls/ref)
dl1.wb_rate                  0.0016 # writeback rate (i.e., wrbks/ref)
dl1.inv_rate                 0.0000 # invalidation rate (i.e., invs/ref)
ul2.accesses                4037176 # total number of accesses
ul2.hits                     695595 # total number of hits
ul2.misses                  3341581 # total number of misses
ul2.replacements            3338208 # total number of replacements
ul2.writebacks                27513 # total number of writebacks
ul2.invalidations                 0 # total number of invalidations
ul2.miss_rate                0.8277 # miss rate (i.e., misses/ref)
ul2.repl_rate                0.8269 # replacement rate (i.e., repls/ref)
ul2.wb_rate                  0.0068 # writeback rate (i.e., wrbks/ref)
ul2.inv_rate                 0.0000 # invalidation rate (i.e., invs/ref)
itlb.accesses             125202189 # total number of accesses
itlb.hits                 125202168 # total number of hits
itlb.misses                      21 # total number of misses
itlb.replacements                 0 # total number of replacements
itlb.writebacks                   0 # total number of writebacks
itlb.invalidations                0 # total number of invalidations
itlb.miss_rate               0.0000 # miss rate (i.e., misses/ref)
itlb.repl_rate               0.0000 # replacement rate (i.e., repls/ref)
itlb.wb_rate                 0.0000 # writeback rate (i.e., wrbks/ref)
itlb.inv_rate                0.0000 # invalidation rate (i.e., invs/ref)
dtlb.accesses              31602444 # total number of accesses
dtlb.hits                  29533488 # total number of hits
dtlb.misses                 2068956 # total number of misses
dtlb.replacements           2068828 # total number of replacements
dtlb.writebacks                   0 # total number of writebacks
dtlb.invalidations                0 # total number of invalidations
dtlb.miss_rate               0.0655 # miss rate (i.e., misses/ref)
dtlb.repl_rate               0.0655 # replacement rate (i.e., repls/ref)
dtlb.wb_rate                 0.0000 # writeback rate (i.e., wrbks/ref)
dtlb.inv_rate                0.0000 # invalidation rate (i.e., invs/ref)
sim_invalid_addrs                 0 # total non-speculative bogus addresses seen (debug var)
ld_text_base           0x0120000000 # program text (code) segment base
ld_text_size                 368640 # program text (code) size in bytes
ld_data_base           0x0140000000 # program initialized data segment base
ld_data_size                  83584 # program init'ed `.data' and uninit'ed `.bss' size in bytes
ld_stack_base          0x011ff9b000 # program stack segment base (highest address in stack)
ld_stack_size                 16384 # program initial stack size
ld_prog_entry          0x0120013040 # program entry point (initial PC)
ld_environ_base        0x011ff97000 # program environment base address address
ld_target_big_endian              0 # target executable endian-ness, non-zero if big endian
mem.page_count                 1809 # total number of pages allocated
mem.page_mem                 14472k # total size of memory pages allocated
mem.ptab_misses              257357 # total first level page table misses
mem.ptab_accesses        1187972816 # total page table accesses
mem.ptab_miss_rate           0.0002 # first level page table miss rate

sim-outorder: SimpleScalar/Alpha Tool Set version 3.0 of August, 2003.
Copyright (c) 1994-2003 by Todd M. Austin, Ph.D. and SimpleScalar, LLC.
All Rights Reserved. This version of SimpleScalar is licensed for academic
non-commercial use.  No portion of this work may be used by any commercial
entity, or for any commercial purpose, without the prior written permission
of SimpleScalar, LLC (info@simplescalar.com).

warning: section `.comment' ignored...
sim: command line: sim-outorder -fastfwd 100000000 -max:inst 100000000 -bpred 2lev -bpred:2lev 1 128 7 0 -mem:width 32 -mem:lat 300 2 ../../exe/ammp.exe 

sim: simulation started @ Fri Oct 25 20:51:33 2024, options follow:

sim-outorder: This simulator implements a very detailed out-of-order issue
superscalar processor with a two-level memory system and speculative
execution support.  This simulator is a performance simulator, tracking the
latency of all pipeline operations.

# -config                     # load configuration from a file
# -dumpconfig                 # dump configuration to a file
# -h                    false # print help message    
# -v                    false # verbose operation     
# -d                    false # enable debug message  
# -i                    false # start in Dlite debugger
-seed                       1 # random number generator seed (0 for timer seed)
# -q                    false # initialize and terminate immediately
# -chkpt               <null> # restore EIO trace execution from <fname>
# -redir:sim           <null> # redirect simulator output to file (non-interactive only)
# -redir:prog          <null> # redirect simulated program output to file
-nice                       0 # simulator scheduling priority
-max:inst           100000000 # maximum number of inst's to execute
-fastfwd            100000000 # number of insts skipped before timing starts
# -ptrace              <null> # generate pipetrace, i.e., <fname|stdout|stderr> <range>
-fetch:ifqsize              4 # instruction fetch queue size (in insts)
-fetch:mplat                3 # extra branch mis-prediction latency
-fetch:speed                1 # speed of front-end of machine relative to execution core
-bpred                   2lev # branch predictor type {nottaken|taken|perfect|bimod|2lev|comb}
-bpred:bimod     2048 # bimodal predictor config (<table size>)
-bpred:2lev      1 128 7 0 # 2-level predictor config (<l1size> <l2size> <hist_size> <xor>)
-bpred:comb      1024 # combining predictor config (<meta_table_size>)
-bpred:ras                  8 # return address stack size (0 for no return stack)
-bpred:btb       512 4 # BTB config (<num_sets> <associativity>)
# -bpred:spec_update       <null> # speculative predictors update in {ID|WB} (default non-spec)
-decode:width               4 # instruction decode B/W (insts/cycle)
-issue:width                4 # instruction issue B/W (insts/cycle)
-issue:inorder          false # run pipeline with in-order issue
-issue:wrongpath         true # issue instructions down wrong execution paths
-commit:width               4 # instruction commit B/W (insts/cycle)
-ruu:size                  16 # register update unit (RUU) size
-lsq:size                   8 # load/store queue (LSQ) size
-cache:dl1       dl1:128:32:4:l # l1 data cache config, i.e., {<config>|none}
-cache:dl1lat               1 # l1 data cache hit latency (in cycles)
-cache:dl2       ul2:1024:64:4:l # l2 data cache config, i.e., {<config>|none}
-cache:dl2lat               6 # l2 data cache hit latency (in cycles)
-cache:il1       il1:512:32:1:l # l1 inst cache config, i.e., {<config>|dl1|dl2|none}
-cache:il1lat               1 # l1 instruction cache hit latency (in cycles)
-cache:il2                dl2 # l2 instruction cache config, i.e., {<config>|dl2|none}
-cache:il2lat               6 # l2 instruction cache hit latency (in cycles)
-cache:flush            false # flush caches on system calls
-cache:icompress        false # convert 64-bit inst addresses to 32-bit inst equivalents
-mem:lat         300 2 # memory access latency (<first_chunk> <inter_chunk>)
-mem:width                 32 # memory access bus width (in bytes)
-tlb:itlb        itlb:16:4096:4:l # instruction TLB config, i.e., {<config>|none}
-tlb:dtlb        dtlb:32:4096:4:l # data TLB config, i.e., {<config>|none}
-tlb:lat                   30 # inst/data TLB miss latency (in cycles)
-res:ialu                   4 # total number of integer ALU's available
-res:imult                  1 # total number of integer multiplier/dividers available
-res:memport                2 # total number of memory system ports available (to CPU)
-res:fpalu                  4 # total number of floating point ALU's available
-res:fpmult                 1 # total number of floating point multiplier/dividers available
# -pcstat              <null> # profile stat(s) against text addr's (mult uses ok)
-bugcompat              false # operate in backward-compatible bugs mode (for testing only)

  Pipetrace range arguments are formatted as follows:

    {{@|#}<start>}:{{@|#|+}<end>}

  Both ends of the range are optional, if neither are specified, the entire
  execution is traced.  Ranges that start with a `@' designate an address
  range to be traced, those that start with an `#' designate a cycle count
  range.  All other range values represent an instruction count range.  The
  second argument, if specified with a `+', indicates a value relative
  to the first argument, e.g., 1000:+100 == 1000:1100.  Program symbols may
  be used in all contexts.

    Examples:   -ptrace FOO.trc #0:#1000
                -ptrace BAR.trc @2000:
                -ptrace BLAH.trc :1500
                -ptrace UXXE.trc :
                -ptrace FOOBAR.trc @main:+278

  Branch predictor configuration examples for 2-level predictor:
    Configurations:   N, M, W, X
      N   # entries in first level (# of shift register(s))
      W   width of shift register(s)
      M   # entries in 2nd level (# of counters, or other FSM)
      X   (yes-1/no-0) xor history and address for 2nd level index
    Sample predictors:
      GAg     : 1, W, 2^W, 0
      GAp     : 1, W, M (M > 2^W), 0
      PAg     : N, W, 2^W, 0
      PAp     : N, W, M (M == 2^(N+W)), 0
      gshare  : 1, W, 2^W, 1
  Predictor `comb' combines a bimodal and a 2-level predictor.

  The cache config parameter <config> has the following format:

    <name>:<nsets>:<bsize>:<assoc>:<repl>

    <name>   - name of the cache being defined
    <nsets>  - number of sets in the cache
    <bsize>  - block size of the cache
    <assoc>  - associativity of the cache
    <repl>   - block replacement strategy, 'l'-LRU, 'f'-FIFO, 'r'-random

    Examples:   -cache:dl1 dl1:4096:32:1:l
                -dtlb dtlb:128:4096:32:r

  Cache levels can be unified by pointing a level of the instruction cache
  hierarchy at the data cache hiearchy using the "dl1" and "dl2" cache
  configuration arguments.  Most sensible combinations are supported, e.g.,

    A unified l2 cache (il2 is pointed at dl2):
      -cache:il1 il1:128:64:1:l -cache:il2 dl2
      -cache:dl1 dl1:256:32:1:l -cache:dl2 ul2:1024:64:2:l

    Or, a fully unified cache hierarchy (il1 pointed at dl1):
      -cache:il1 dl1
      -cache:dl1 ul1:256:32:1:l -cache:dl2 ul2:1024:64:2:l



sim: ** fast forwarding 100000000 insts **
sim: ** starting performance simulation **

sim: ** simulation statistics **
sim_num_insn              100000001 # total number of instructions committed
sim_num_refs               30101334 # total number of loads and stores committed
sim_num_loads              23145477 # total number of loads committed
sim_num_stores         6955857.0000 # total number of stores committed
sim_num_branches           20651019 # total number of branches committed
sim_elapsed_time                115 # total simulation time in seconds
sim_inst_rate           869565.2261 # simulation speed (in insts/sec)
sim_total_insn            118651888 # total number of instructions executed
sim_total_refs             35392067 # total number of loads and stores executed
sim_total_loads            26892022 # total number of loads executed
sim_total_stores       8500045.0000 # total number of stores executed
sim_total_branches         24103892 # total number of branches executed
sim_cycle                1051423236 # total simulation time in cycles
sim_IPC                      0.0951 # instructions per cycle
sim_CPI                     10.5142 # cycles per instruction
sim_exec_BW                  0.1128 # total instructions (mis-spec + committed) per cycle
sim_IPB                      4.8424 # instruction per branch
IFQ_count                4074875315 # cumulative IFQ occupancy
IFQ_fcount               1010220168 # cumulative IFQ full count
ifq_occupancy                3.8756 # avg IFQ occupancy (insn's)
ifq_rate                     0.1128 # avg IFQ dispatch rate (insn/cycle)
ifq_latency                 34.3431 # avg IFQ occupant latency (cycle's)
ifq_full                     0.9608 # fraction of time (cycle's) IFQ was full
RUU_count               16396286900 # cumulative RUU occupancy
RUU_fcount                993281043 # cumulative RUU full count
ruu_occupancy               15.5944 # avg RUU occupancy (insn's)
ruu_rate                     0.1128 # avg RUU dispatch rate (insn/cycle)
ruu_latency                138.1882 # avg RUU occupant latency (cycle's)
ruu_full                     0.9447 # fraction of time (cycle's) RUU was full
LSQ_count                8008821607 # cumulative LSQ occupancy
LSQ_fcount                928921750 # cumulative LSQ full count
lsq_occupancy                7.6171 # avg LSQ occupancy (insn's)
lsq_rate                     0.1128 # avg LSQ dispatch rate (insn/cycle)
lsq_latency                 67.4985 # avg LSQ occupant latency (cycle's)
lsq_full                     0.8835 # fraction of time (cycle's) LSQ was full
sim_slip                23769127269 # total number of slip cycles
avg_sim_slip               237.6913 # the average slip between issue and retirement
bpred_2lev.lookups         25207851 # total number of bpred lookups
bpred_2lev.updates         20651018 # total number of updates
bpred_2lev.addr_hits       14353016 # total number of address-predicted hits
bpred_2lev.dir_hits        14390529 # total number of direction-predicted hits (includes addr-hits)
bpred_2lev.misses           6260489 # total number of misses
bpred_2lev.jr_hits          1107439 # total number of address-predicted hits for JR's
bpred_2lev.jr_seen          1144770 # total number of JR's seen
bpred_2lev.jr_non_ras_hits.PP         3060 # total number of address-predicted hits for non-RAS JR's
bpred_2lev.jr_non_ras_seen.PP         3065 # total number of non-RAS JR's seen
bpred_2lev.bpred_addr_rate    0.6950 # branch address-prediction rate (i.e., addr-hits/updates)
bpred_2lev.bpred_dir_rate    0.6968 # branch direction-prediction rate (i.e., all-hits/updates)
bpred_2lev.bpred_jr_rate    0.9674 # JR address-prediction rate (i.e., JR addr-hits/JRs seen)
bpred_2lev.bpred_jr_non_ras_rate.PP    0.9984 # non-RAS JR addr-pred rate (ie, non-RAS JR hits/JRs seen)
bpred_2lev.retstack_pushes      1517403 # total number of address pushed onto ret-addr stack
bpred_2lev.retstack_pops      1318183 # total number of address popped off of ret-addr stack
bpred_2lev.used_ras.PP      1141705 # total number of RAS predictions used
bpred_2lev.ras_hits.PP      1104379 # total number of RAS hits
bpred_2lev.ras_rate.PP    0.9673 # RAS prediction rate (i.e., RAS hits/used RAS)
il1.accesses              125710187 # total number of accesses
il1.hits                  125071402 # total number of hits
il1.misses                   638785 # total number of misses
il1.replacements             638463 # total number of replacements
il1.writebacks                    0 # total number of writebacks
il1.invalidations                 0 # total number of invalidations
il1.miss_rate                0.0051 # miss rate (i.e., misses/ref)
il1.repl_rate                0.0051 # replacement rate (i.e., repls/ref)
il1.wb_rate                  0.0000 # writeback rate (i.e., wrbks/ref)
il1.inv_rate                 0.0000 # invalidation rate (i.e., invs/ref)
dl1.accesses               28498639 # total number of accesses
dl1.hits                   25141662 # total number of hits
dl1.misses                  3356977 # total number of misses
dl1.replacements            3356465 # total number of replacements
dl1.writebacks                43896 # total number of writebacks
dl1.invalidations                 0 # total number of invalidations
dl1.miss_rate                0.1178 # miss rate (i.e., misses/ref)
dl1.repl_rate                0.1178 # replacement rate (i.e., repls/ref)
dl1.wb_rate                  0.0015 # writeback rate (i.e., wrbks/ref)
dl1.inv_rate                 0.0000 # invalidation rate (i.e., invs/ref)
ul2.accesses                4039658 # total number of accesses
ul2.hits                     698130 # total number of hits
ul2.misses                  3341528 # total number of misses
ul2.replacements            3338155 # total number of replacements
ul2.writebacks                27461 # total number of writebacks
ul2.invalidations                 0 # total number of invalidations
ul2.miss_rate                0.8272 # miss rate (i.e., misses/ref)
ul2.repl_rate                0.8263 # replacement rate (i.e., repls/ref)
ul2.wb_rate                  0.0068 # writeback rate (i.e., wrbks/ref)
ul2.inv_rate                 0.0000 # invalidation rate (i.e., invs/ref)
itlb.accesses             125710187 # total number of accesses
itlb.hits                 125710166 # total number of hits
itlb.misses                      21 # total number of misses
itlb.replacements                 0 # total number of replacements
itlb.writebacks                   0 # total number of writebacks
itlb.invalidations                0 # total number of invalidations
itlb.miss_rate               0.0000 # miss rate (i.e., misses/ref)
itlb.repl_rate               0.0000 # replacement rate (i.e., repls/ref)
itlb.wb_rate                 0.0000 # writeback rate (i.e., wrbks/ref)
itlb.inv_rate                0.0000 # invalidation rate (i.e., invs/ref)
dtlb.accesses              31909872 # total number of accesses
dtlb.hits                  29840950 # total number of hits
dtlb.misses                 2068922 # total number of misses
dtlb.replacements           2068794 # total number of replacements
dtlb.writebacks                   0 # total number of writebacks
dtlb.invalidations                0 # total number of invalidations
dtlb.miss_rate               0.0648 # miss rate (i.e., misses/ref)
dtlb.repl_rate               0.0648 # replacement rate (i.e., repls/ref)
dtlb.wb_rate                 0.0000 # writeback rate (i.e., wrbks/ref)
dtlb.inv_rate                0.0000 # invalidation rate (i.e., invs/ref)
sim_invalid_addrs                 0 # total non-speculative bogus addresses seen (debug var)
ld_text_base           0x0120000000 # program text (code) segment base
ld_text_size                 368640 # program text (code) size in bytes
ld_data_base           0x0140000000 # program initialized data segment base
ld_data_size                  83584 # program init'ed `.data' and uninit'ed `.bss' size in bytes
ld_stack_base          0x011ff9b000 # program stack segment base (highest address in stack)
ld_stack_size                 16384 # program initial stack size
ld_prog_entry          0x0120013040 # program entry point (initial PC)
ld_environ_base        0x011ff97000 # program environment base address address
ld_target_big_endian              0 # target executable endian-ness, non-zero if big endian
mem.page_count                 1809 # total number of pages allocated
mem.page_mem                 14472k # total size of memory pages allocated
mem.ptab_misses              255770 # total first level page table misses
mem.ptab_accesses        1188965180 # total page table accesses
mem.ptab_miss_rate           0.0002 # first level page table miss rate

sim-outorder: SimpleScalar/Alpha Tool Set version 3.0 of August, 2003.
Copyright (c) 1994-2003 by Todd M. Austin, Ph.D. and SimpleScalar, LLC.
All Rights Reserved. This version of SimpleScalar is licensed for academic
non-commercial use.  No portion of this work may be used by any commercial
entity, or for any commercial purpose, without the prior written permission
of SimpleScalar, LLC (info@simplescalar.com).

warning: section `.comment' ignored...
sim: command line: sim-outorder -fastfwd 100000000 -max:inst 100000000 -bpred 2lev -bpred:2lev 1 512 9 0 -mem:width 32 -mem:lat 300 2 ../../exe/ammp.exe 

sim: simulation started @ Fri Oct 25 20:53:28 2024, options follow:

sim-outorder: This simulator implements a very detailed out-of-order issue
superscalar processor with a two-level memory system and speculative
execution support.  This simulator is a performance simulator, tracking the
latency of all pipeline operations.

# -config                     # load configuration from a file
# -dumpconfig                 # dump configuration to a file
# -h                    false # print help message    
# -v                    false # verbose operation     
# -d                    false # enable debug message  
# -i                    false # start in Dlite debugger
-seed                       1 # random number generator seed (0 for timer seed)
# -q                    false # initialize and terminate immediately
# -chkpt               <null> # restore EIO trace execution from <fname>
# -redir:sim           <null> # redirect simulator output to file (non-interactive only)
# -redir:prog          <null> # redirect simulated program output to file
-nice                       0 # simulator scheduling priority
-max:inst           100000000 # maximum number of inst's to execute
-fastfwd            100000000 # number of insts skipped before timing starts
# -ptrace              <null> # generate pipetrace, i.e., <fname|stdout|stderr> <range>
-fetch:ifqsize              4 # instruction fetch queue size (in insts)
-fetch:mplat                3 # extra branch mis-prediction latency
-fetch:speed                1 # speed of front-end of machine relative to execution core
-bpred                   2lev # branch predictor type {nottaken|taken|perfect|bimod|2lev|comb}
-bpred:bimod     2048 # bimodal predictor config (<table size>)
-bpred:2lev      1 512 9 0 # 2-level predictor config (<l1size> <l2size> <hist_size> <xor>)
-bpred:comb      1024 # combining predictor config (<meta_table_size>)
-bpred:ras                  8 # return address stack size (0 for no return stack)
-bpred:btb       512 4 # BTB config (<num_sets> <associativity>)
# -bpred:spec_update       <null> # speculative predictors update in {ID|WB} (default non-spec)
-decode:width               4 # instruction decode B/W (insts/cycle)
-issue:width                4 # instruction issue B/W (insts/cycle)
-issue:inorder          false # run pipeline with in-order issue
-issue:wrongpath         true # issue instructions down wrong execution paths
-commit:width               4 # instruction commit B/W (insts/cycle)
-ruu:size                  16 # register update unit (RUU) size
-lsq:size                   8 # load/store queue (LSQ) size
-cache:dl1       dl1:128:32:4:l # l1 data cache config, i.e., {<config>|none}
-cache:dl1lat               1 # l1 data cache hit latency (in cycles)
-cache:dl2       ul2:1024:64:4:l # l2 data cache config, i.e., {<config>|none}
-cache:dl2lat               6 # l2 data cache hit latency (in cycles)
-cache:il1       il1:512:32:1:l # l1 inst cache config, i.e., {<config>|dl1|dl2|none}
-cache:il1lat               1 # l1 instruction cache hit latency (in cycles)
-cache:il2                dl2 # l2 instruction cache config, i.e., {<config>|dl2|none}
-cache:il2lat               6 # l2 instruction cache hit latency (in cycles)
-cache:flush            false # flush caches on system calls
-cache:icompress        false # convert 64-bit inst addresses to 32-bit inst equivalents
-mem:lat         300 2 # memory access latency (<first_chunk> <inter_chunk>)
-mem:width                 32 # memory access bus width (in bytes)
-tlb:itlb        itlb:16:4096:4:l # instruction TLB config, i.e., {<config>|none}
-tlb:dtlb        dtlb:32:4096:4:l # data TLB config, i.e., {<config>|none}
-tlb:lat                   30 # inst/data TLB miss latency (in cycles)
-res:ialu                   4 # total number of integer ALU's available
-res:imult                  1 # total number of integer multiplier/dividers available
-res:memport                2 # total number of memory system ports available (to CPU)
-res:fpalu                  4 # total number of floating point ALU's available
-res:fpmult                 1 # total number of floating point multiplier/dividers available
# -pcstat              <null> # profile stat(s) against text addr's (mult uses ok)
-bugcompat              false # operate in backward-compatible bugs mode (for testing only)

  Pipetrace range arguments are formatted as follows:

    {{@|#}<start>}:{{@|#|+}<end>}

  Both ends of the range are optional, if neither are specified, the entire
  execution is traced.  Ranges that start with a `@' designate an address
  range to be traced, those that start with an `#' designate a cycle count
  range.  All other range values represent an instruction count range.  The
  second argument, if specified with a `+', indicates a value relative
  to the first argument, e.g., 1000:+100 == 1000:1100.  Program symbols may
  be used in all contexts.

    Examples:   -ptrace FOO.trc #0:#1000
                -ptrace BAR.trc @2000:
                -ptrace BLAH.trc :1500
                -ptrace UXXE.trc :
                -ptrace FOOBAR.trc @main:+278

  Branch predictor configuration examples for 2-level predictor:
    Configurations:   N, M, W, X
      N   # entries in first level (# of shift register(s))
      W   width of shift register(s)
      M   # entries in 2nd level (# of counters, or other FSM)
      X   (yes-1/no-0) xor history and address for 2nd level index
    Sample predictors:
      GAg     : 1, W, 2^W, 0
      GAp     : 1, W, M (M > 2^W), 0
      PAg     : N, W, 2^W, 0
      PAp     : N, W, M (M == 2^(N+W)), 0
      gshare  : 1, W, 2^W, 1
  Predictor `comb' combines a bimodal and a 2-level predictor.

  The cache config parameter <config> has the following format:

    <name>:<nsets>:<bsize>:<assoc>:<repl>

    <name>   - name of the cache being defined
    <nsets>  - number of sets in the cache
    <bsize>  - block size of the cache
    <assoc>  - associativity of the cache
    <repl>   - block replacement strategy, 'l'-LRU, 'f'-FIFO, 'r'-random

    Examples:   -cache:dl1 dl1:4096:32:1:l
                -dtlb dtlb:128:4096:32:r

  Cache levels can be unified by pointing a level of the instruction cache
  hierarchy at the data cache hiearchy using the "dl1" and "dl2" cache
  configuration arguments.  Most sensible combinations are supported, e.g.,

    A unified l2 cache (il2 is pointed at dl2):
      -cache:il1 il1:128:64:1:l -cache:il2 dl2
      -cache:dl1 dl1:256:32:1:l -cache:dl2 ul2:1024:64:2:l

    Or, a fully unified cache hierarchy (il1 pointed at dl1):
      -cache:il1 dl1
      -cache:dl1 ul1:256:32:1:l -cache:dl2 ul2:1024:64:2:l



sim: ** fast forwarding 100000000 insts **
sim: ** starting performance simulation **

sim: ** simulation statistics **
sim_num_insn              100000001 # total number of instructions committed
sim_num_refs               30101334 # total number of loads and stores committed
sim_num_loads              23145477 # total number of loads committed
sim_num_stores         6955857.0000 # total number of stores committed
sim_num_branches           20651019 # total number of branches committed
sim_elapsed_time                 75 # total simulation time in seconds
sim_inst_rate          1333333.3467 # simulation speed (in insts/sec)
sim_total_insn            115077850 # total number of instructions executed
sim_total_refs             34365766 # total number of loads and stores executed
sim_total_loads            25981487 # total number of loads executed
sim_total_stores       8384279.0000 # total number of stores executed
sim_total_branches         23405005 # total number of branches executed
sim_cycle                1048734805 # total simulation time in cycles
sim_IPC                      0.0954 # instructions per cycle
sim_CPI                     10.4873 # cycles per instruction
sim_exec_BW                  0.1097 # total instructions (mis-spec + committed) per cycle
sim_IPB                      4.8424 # instruction per branch
IFQ_count                4067299459 # cumulative IFQ occupancy
IFQ_fcount               1008395336 # cumulative IFQ full count
ifq_occupancy                3.8783 # avg IFQ occupancy (insn's)
ifq_rate                     0.1097 # avg IFQ dispatch rate (insn/cycle)
ifq_latency                 35.3439 # avg IFQ occupant latency (cycle's)
ifq_full                     0.9615 # fraction of time (cycle's) IFQ was full
RUU_count               16382781446 # cumulative RUU occupancy
RUU_fcount                992666427 # cumulative RUU full count
ruu_occupancy               15.6215 # avg RUU occupancy (insn's)
ruu_rate                     0.1097 # avg RUU dispatch rate (insn/cycle)
ruu_latency                142.3626 # avg RUU occupant latency (cycle's)
ruu_full                     0.9465 # fraction of time (cycle's) RUU was full
LSQ_count                8037027536 # cumulative LSQ occupancy
LSQ_fcount                962993304 # cumulative LSQ full count
lsq_occupancy                7.6635 # avg LSQ occupancy (insn's)
lsq_rate                     0.1097 # avg LSQ dispatch rate (insn/cycle)
lsq_latency                 69.8399 # avg LSQ occupant latency (cycle's)
lsq_full                     0.9182 # fraction of time (cycle's) LSQ was full
sim_slip                24248735373 # total number of slip cycles
avg_sim_slip               242.4874 # the average slip between issue and retirement
bpred_2lev.lookups         24224423 # total number of bpred lookups
bpred_2lev.updates         20651018 # total number of updates
bpred_2lev.addr_hits       14652754 # total number of address-predicted hits
bpred_2lev.dir_hits        14676678 # total number of direction-predicted hits (includes addr-hits)
bpred_2lev.misses           5974340 # total number of misses
bpred_2lev.jr_hits          1121036 # total number of address-predicted hits for JR's
bpred_2lev.jr_seen          1144770 # total number of JR's seen
bpred_2lev.jr_non_ras_hits.PP         3060 # total number of address-predicted hits for non-RAS JR's
bpred_2lev.jr_non_ras_seen.PP         3065 # total number of non-RAS JR's seen
bpred_2lev.bpred_addr_rate    0.7095 # branch address-prediction rate (i.e., addr-hits/updates)
bpred_2lev.bpred_dir_rate    0.7107 # branch direction-prediction rate (i.e., all-hits/updates)
bpred_2lev.bpred_jr_rate    0.9793 # JR address-prediction rate (i.e., JR addr-hits/JRs seen)
bpred_2lev.bpred_jr_non_ras_rate.PP    0.9984 # non-RAS JR addr-pred rate (ie, non-RAS JR hits/JRs seen)
bpred_2lev.retstack_pushes      1492698 # total number of address pushed onto ret-addr stack
bpred_2lev.retstack_pops      1236928 # total number of address popped off of ret-addr stack
bpred_2lev.used_ras.PP      1141705 # total number of RAS predictions used
bpred_2lev.ras_hits.PP      1117976 # total number of RAS hits
bpred_2lev.ras_rate.PP    0.9792 # RAS prediction rate (i.e., RAS hits/used RAS)
il1.accesses              120610479 # total number of accesses
il1.hits                  119980474 # total number of hits
il1.misses                   630005 # total number of misses
il1.replacements             629680 # total number of replacements
il1.writebacks                    0 # total number of writebacks
il1.invalidations                 0 # total number of invalidations
il1.miss_rate                0.0052 # miss rate (i.e., misses/ref)
il1.repl_rate                0.0052 # replacement rate (i.e., repls/ref)
il1.wb_rate                  0.0000 # writeback rate (i.e., wrbks/ref)
il1.inv_rate                 0.0000 # invalidation rate (i.e., invs/ref)
dl1.accesses               27860614 # total number of accesses
dl1.hits                   24503767 # total number of hits
dl1.misses                  3356847 # total number of misses
dl1.replacements            3356335 # total number of replacements
dl1.writebacks                43893 # total number of writebacks
dl1.invalidations                 0 # total number of invalidations
dl1.miss_rate                0.1205 # miss rate (i.e., misses/ref)
dl1.repl_rate                0.1205 # replacement rate (i.e., repls/ref)
dl1.wb_rate                  0.0016 # writeback rate (i.e., wrbks/ref)
dl1.inv_rate                 0.0000 # invalidation rate (i.e., invs/ref)
ul2.accesses                4030745 # total number of accesses
ul2.hits                     689247 # total number of hits
ul2.misses                  3341498 # total number of misses
ul2.replacements            3338124 # total number of replacements
ul2.writebacks                27469 # total number of writebacks
ul2.invalidations                 0 # total number of invalidations
ul2.miss_rate                0.8290 # miss rate (i.e., misses/ref)
ul2.repl_rate                0.8282 # replacement rate (i.e., repls/ref)
ul2.wb_rate                  0.0068 # writeback rate (i.e., wrbks/ref)
ul2.inv_rate                 0.0000 # invalidation rate (i.e., invs/ref)
itlb.accesses             120610479 # total number of accesses
itlb.hits                 120610458 # total number of hits
itlb.misses                      21 # total number of misses
itlb.replacements                 0 # total number of replacements
itlb.writebacks                   0 # total number of writebacks
itlb.invalidations                0 # total number of invalidations
itlb.miss_rate               0.0000 # miss rate (i.e., misses/ref)
itlb.repl_rate               0.0000 # replacement rate (i.e., repls/ref)
itlb.wb_rate                 0.0000 # writeback rate (i.e., wrbks/ref)
itlb.inv_rate                0.0000 # invalidation rate (i.e., invs/ref)
dtlb.accesses              31264995 # total number of accesses
dtlb.hits                  29196196 # total number of hits
dtlb.misses                 2068799 # total number of misses
dtlb.replacements           2068671 # total number of replacements
dtlb.writebacks                   0 # total number of writebacks
dtlb.invalidations                0 # total number of invalidations
dtlb.miss_rate               0.0662 # miss rate (i.e., misses/ref)
dtlb.repl_rate               0.0662 # replacement rate (i.e., repls/ref)
dtlb.wb_rate                 0.0000 # writeback rate (i.e., wrbks/ref)
dtlb.inv_rate                0.0000 # invalidation rate (i.e., invs/ref)
sim_invalid_addrs                 0 # total non-speculative bogus addresses seen (debug var)
ld_text_base           0x0120000000 # program text (code) segment base
ld_text_size                 368640 # program text (code) size in bytes
ld_data_base           0x0140000000 # program initialized data segment base
ld_data_size                  83584 # program init'ed `.data' and uninit'ed `.bss' size in bytes
ld_stack_base          0x011ff9b000 # program stack segment base (highest address in stack)
ld_stack_size                 16384 # program initial stack size
ld_prog_entry          0x0120013040 # program entry point (initial PC)
ld_environ_base        0x011ff97000 # program environment base address address
ld_target_big_endian              0 # target executable endian-ness, non-zero if big endian
mem.page_count                 1809 # total number of pages allocated
mem.page_mem                 14472k # total size of memory pages allocated
mem.ptab_misses              253302 # total first level page table misses
mem.ptab_accesses        1175653240 # total page table accesses
mem.ptab_miss_rate           0.0002 # first level page table miss rate

sim-outorder: SimpleScalar/Alpha Tool Set version 3.0 of August, 2003.
Copyright (c) 1994-2003 by Todd M. Austin, Ph.D. and SimpleScalar, LLC.
All Rights Reserved. This version of SimpleScalar is licensed for academic
non-commercial use.  No portion of this work may be used by any commercial
entity, or for any commercial purpose, without the prior written permission
of SimpleScalar, LLC (info@simplescalar.com).

warning: section `.comment' ignored...
sim: command line: sim-outorder -fastfwd 100000000 -max:inst 100000000 -bpred 2lev -bpred:2lev 1 2048 11 0 -mem:width 32 -mem:lat 300 2 ../../exe/ammp.exe 

sim: simulation started @ Fri Oct 25 20:54:43 2024, options follow:

sim-outorder: This simulator implements a very detailed out-of-order issue
superscalar processor with a two-level memory system and speculative
execution support.  This simulator is a performance simulator, tracking the
latency of all pipeline operations.

# -config                     # load configuration from a file
# -dumpconfig                 # dump configuration to a file
# -h                    false # print help message    
# -v                    false # verbose operation     
# -d                    false # enable debug message  
# -i                    false # start in Dlite debugger
-seed                       1 # random number generator seed (0 for timer seed)
# -q                    false # initialize and terminate immediately
# -chkpt               <null> # restore EIO trace execution from <fname>
# -redir:sim           <null> # redirect simulator output to file (non-interactive only)
# -redir:prog          <null> # redirect simulated program output to file
-nice                       0 # simulator scheduling priority
-max:inst           100000000 # maximum number of inst's to execute
-fastfwd            100000000 # number of insts skipped before timing starts
# -ptrace              <null> # generate pipetrace, i.e., <fname|stdout|stderr> <range>
-fetch:ifqsize              4 # instruction fetch queue size (in insts)
-fetch:mplat                3 # extra branch mis-prediction latency
-fetch:speed                1 # speed of front-end of machine relative to execution core
-bpred                   2lev # branch predictor type {nottaken|taken|perfect|bimod|2lev|comb}
-bpred:bimod     2048 # bimodal predictor config (<table size>)
-bpred:2lev      1 2048 11 0 # 2-level predictor config (<l1size> <l2size> <hist_size> <xor>)
-bpred:comb      1024 # combining predictor config (<meta_table_size>)
-bpred:ras                  8 # return address stack size (0 for no return stack)
-bpred:btb       512 4 # BTB config (<num_sets> <associativity>)
# -bpred:spec_update       <null> # speculative predictors update in {ID|WB} (default non-spec)
-decode:width               4 # instruction decode B/W (insts/cycle)
-issue:width                4 # instruction issue B/W (insts/cycle)
-issue:inorder          false # run pipeline with in-order issue
-issue:wrongpath         true # issue instructions down wrong execution paths
-commit:width               4 # instruction commit B/W (insts/cycle)
-ruu:size                  16 # register update unit (RUU) size
-lsq:size                   8 # load/store queue (LSQ) size
-cache:dl1       dl1:128:32:4:l # l1 data cache config, i.e., {<config>|none}
-cache:dl1lat               1 # l1 data cache hit latency (in cycles)
-cache:dl2       ul2:1024:64:4:l # l2 data cache config, i.e., {<config>|none}
-cache:dl2lat               6 # l2 data cache hit latency (in cycles)
-cache:il1       il1:512:32:1:l # l1 inst cache config, i.e., {<config>|dl1|dl2|none}
-cache:il1lat               1 # l1 instruction cache hit latency (in cycles)
-cache:il2                dl2 # l2 instruction cache config, i.e., {<config>|dl2|none}
-cache:il2lat               6 # l2 instruction cache hit latency (in cycles)
-cache:flush            false # flush caches on system calls
-cache:icompress        false # convert 64-bit inst addresses to 32-bit inst equivalents
-mem:lat         300 2 # memory access latency (<first_chunk> <inter_chunk>)
-mem:width                 32 # memory access bus width (in bytes)
-tlb:itlb        itlb:16:4096:4:l # instruction TLB config, i.e., {<config>|none}
-tlb:dtlb        dtlb:32:4096:4:l # data TLB config, i.e., {<config>|none}
-tlb:lat                   30 # inst/data TLB miss latency (in cycles)
-res:ialu                   4 # total number of integer ALU's available
-res:imult                  1 # total number of integer multiplier/dividers available
-res:memport                2 # total number of memory system ports available (to CPU)
-res:fpalu                  4 # total number of floating point ALU's available
-res:fpmult                 1 # total number of floating point multiplier/dividers available
# -pcstat              <null> # profile stat(s) against text addr's (mult uses ok)
-bugcompat              false # operate in backward-compatible bugs mode (for testing only)

  Pipetrace range arguments are formatted as follows:

    {{@|#}<start>}:{{@|#|+}<end>}

  Both ends of the range are optional, if neither are specified, the entire
  execution is traced.  Ranges that start with a `@' designate an address
  range to be traced, those that start with an `#' designate a cycle count
  range.  All other range values represent an instruction count range.  The
  second argument, if specified with a `+', indicates a value relative
  to the first argument, e.g., 1000:+100 == 1000:1100.  Program symbols may
  be used in all contexts.

    Examples:   -ptrace FOO.trc #0:#1000
                -ptrace BAR.trc @2000:
                -ptrace BLAH.trc :1500
                -ptrace UXXE.trc :
                -ptrace FOOBAR.trc @main:+278

  Branch predictor configuration examples for 2-level predictor:
    Configurations:   N, M, W, X
      N   # entries in first level (# of shift register(s))
      W   width of shift register(s)
      M   # entries in 2nd level (# of counters, or other FSM)
      X   (yes-1/no-0) xor history and address for 2nd level index
    Sample predictors:
      GAg     : 1, W, 2^W, 0
      GAp     : 1, W, M (M > 2^W), 0
      PAg     : N, W, 2^W, 0
      PAp     : N, W, M (M == 2^(N+W)), 0
      gshare  : 1, W, 2^W, 1
  Predictor `comb' combines a bimodal and a 2-level predictor.

  The cache config parameter <config> has the following format:

    <name>:<nsets>:<bsize>:<assoc>:<repl>

    <name>   - name of the cache being defined
    <nsets>  - number of sets in the cache
    <bsize>  - block size of the cache
    <assoc>  - associativity of the cache
    <repl>   - block replacement strategy, 'l'-LRU, 'f'-FIFO, 'r'-random

    Examples:   -cache:dl1 dl1:4096:32:1:l
                -dtlb dtlb:128:4096:32:r

  Cache levels can be unified by pointing a level of the instruction cache
  hierarchy at the data cache hiearchy using the "dl1" and "dl2" cache
  configuration arguments.  Most sensible combinations are supported, e.g.,

    A unified l2 cache (il2 is pointed at dl2):
      -cache:il1 il1:128:64:1:l -cache:il2 dl2
      -cache:dl1 dl1:256:32:1:l -cache:dl2 ul2:1024:64:2:l

    Or, a fully unified cache hierarchy (il1 pointed at dl1):
      -cache:il1 dl1
      -cache:dl1 ul1:256:32:1:l -cache:dl2 ul2:1024:64:2:l



sim: ** fast forwarding 100000000 insts **
sim: ** starting performance simulation **

sim: ** simulation statistics **
sim_num_insn              100000001 # total number of instructions committed
sim_num_refs               30101334 # total number of loads and stores committed
sim_num_loads              23145477 # total number of loads committed
sim_num_stores         6955857.0000 # total number of stores committed
sim_num_branches           20651019 # total number of branches committed
sim_elapsed_time                 73 # total simulation time in seconds
sim_inst_rate          1369863.0274 # simulation speed (in insts/sec)
sim_total_insn            141902952 # total number of instructions executed
sim_total_refs             45058580 # total number of loads and stores executed
sim_total_loads            33961160 # total number of loads executed
sim_total_stores       11097420.0000 # total number of stores executed
sim_total_branches         28735724 # total number of branches executed
sim_cycle                1072526824 # total simulation time in cycles
sim_IPC                      0.0932 # instructions per cycle
sim_CPI                     10.7253 # cycles per instruction
sim_exec_BW                  0.1323 # total instructions (mis-spec + committed) per cycle
sim_IPB                      4.8424 # instruction per branch
IFQ_count                4173418624 # cumulative IFQ occupancy
IFQ_fcount               1035625700 # cumulative IFQ full count
ifq_occupancy                3.8912 # avg IFQ occupancy (insn's)
ifq_rate                     0.1323 # avg IFQ dispatch rate (insn/cycle)
ifq_latency                 29.4104 # avg IFQ occupant latency (cycle's)
ifq_full                     0.9656 # fraction of time (cycle's) IFQ was full
RUU_count               16600170867 # cumulative RUU occupancy
RUU_fcount               1011923840 # cumulative RUU full count
ruu_occupancy               15.4776 # avg RUU occupancy (insn's)
ruu_rate                     0.1323 # avg RUU dispatch rate (insn/cycle)
ruu_latency                116.9826 # avg RUU occupant latency (cycle's)
ruu_full                     0.9435 # fraction of time (cycle's) RUU was full
LSQ_count                7319055155 # cumulative LSQ occupancy
LSQ_fcount                157737118 # cumulative LSQ full count
lsq_occupancy                6.8241 # avg LSQ occupancy (insn's)
lsq_rate                     0.1323 # avg LSQ dispatch rate (insn/cycle)
lsq_latency                 51.5779 # avg LSQ occupant latency (cycle's)
lsq_full                     0.1471 # fraction of time (cycle's) LSQ was full
sim_slip                13000821271 # total number of slip cycles
avg_sim_slip               130.0082 # the average slip between issue and retirement
bpred_2lev.lookups         32210089 # total number of bpred lookups
bpred_2lev.updates         20651017 # total number of updates
bpred_2lev.addr_hits       14790172 # total number of address-predicted hits
bpred_2lev.dir_hits        14812177 # total number of direction-predicted hits (includes addr-hits)
bpred_2lev.misses           5838840 # total number of misses
bpred_2lev.jr_hits          1122952 # total number of address-predicted hits for JR's
bpred_2lev.jr_seen          1144770 # total number of JR's seen
bpred_2lev.jr_non_ras_hits.PP         3060 # total number of address-predicted hits for non-RAS JR's
bpred_2lev.jr_non_ras_seen.PP         3065 # total number of non-RAS JR's seen
bpred_2lev.bpred_addr_rate    0.7162 # branch address-prediction rate (i.e., addr-hits/updates)
bpred_2lev.bpred_dir_rate    0.7173 # branch direction-prediction rate (i.e., all-hits/updates)
bpred_2lev.bpred_jr_rate    0.9809 # JR address-prediction rate (i.e., JR addr-hits/JRs seen)
bpred_2lev.bpred_jr_non_ras_rate.PP    0.9984 # non-RAS JR addr-pred rate (ie, non-RAS JR hits/JRs seen)
bpred_2lev.retstack_pushes      1478847 # total number of address pushed onto ret-addr stack
bpred_2lev.retstack_pops      1228235 # total number of address popped off of ret-addr stack
bpred_2lev.used_ras.PP      1141705 # total number of RAS predictions used
bpred_2lev.ras_hits.PP      1119892 # total number of RAS hits
bpred_2lev.ras_rate.PP    0.9809 # RAS prediction rate (i.e., RAS hits/used RAS)
il1.accesses              158127932 # total number of accesses
il1.hits                  157498753 # total number of hits
il1.misses                   629179 # total number of misses
il1.replacements             628857 # total number of replacements
il1.writebacks                    0 # total number of writebacks
il1.invalidations                 0 # total number of invalidations
il1.miss_rate                0.0040 # miss rate (i.e., misses/ref)
il1.repl_rate                0.0040 # replacement rate (i.e., repls/ref)
il1.wb_rate                  0.0000 # writeback rate (i.e., wrbks/ref)
il1.inv_rate                 0.0000 # invalidation rate (i.e., invs/ref)
dl1.accesses               35932657 # total number of accesses
dl1.hits                   32576164 # total number of hits
dl1.misses                  3356493 # total number of misses
dl1.replacements            3355981 # total number of replacements
dl1.writebacks                43877 # total number of writebacks
dl1.invalidations                 0 # total number of invalidations
dl1.miss_rate                0.0934 # miss rate (i.e., misses/ref)
dl1.repl_rate                0.0934 # replacement rate (i.e., repls/ref)
dl1.wb_rate                  0.0012 # writeback rate (i.e., wrbks/ref)
dl1.inv_rate                 0.0000 # invalidation rate (i.e., invs/ref)
ul2.accesses                4029549 # total number of accesses
ul2.hits                     687722 # total number of hits
ul2.misses                  3341827 # total number of misses
ul2.replacements            3338455 # total number of replacements
ul2.writebacks                27471 # total number of writebacks
ul2.invalidations                 0 # total number of invalidations
ul2.miss_rate                0.8293 # miss rate (i.e., misses/ref)
ul2.repl_rate                0.8285 # replacement rate (i.e., repls/ref)
ul2.wb_rate                  0.0068 # writeback rate (i.e., wrbks/ref)
ul2.inv_rate                 0.0000 # invalidation rate (i.e., invs/ref)
itlb.accesses             158127932 # total number of accesses
itlb.hits                 158127912 # total number of hits
itlb.misses                      20 # total number of misses
itlb.replacements                 0 # total number of replacements
itlb.writebacks                   0 # total number of writebacks
itlb.invalidations                0 # total number of invalidations
itlb.miss_rate               0.0000 # miss rate (i.e., misses/ref)
itlb.repl_rate               0.0000 # replacement rate (i.e., repls/ref)
itlb.wb_rate                 0.0000 # writeback rate (i.e., wrbks/ref)
itlb.inv_rate                0.0000 # invalidation rate (i.e., invs/ref)
dtlb.accesses              39337380 # total number of accesses
dtlb.hits                  37268806 # total number of hits
dtlb.misses                 2068574 # total number of misses
dtlb.replacements           2068446 # total number of replacements
dtlb.writebacks                   0 # total number of writebacks
dtlb.invalidations                0 # total number of invalidations
dtlb.miss_rate               0.0526 # miss rate (i.e., misses/ref)
dtlb.repl_rate               0.0526 # replacement rate (i.e., repls/ref)
dtlb.wb_rate                 0.0000 # writeback rate (i.e., wrbks/ref)
dtlb.inv_rate                0.0000 # invalidation rate (i.e., invs/ref)
sim_invalid_addrs                 0 # total non-speculative bogus addresses seen (debug var)
ld_text_base           0x0120000000 # program text (code) segment base
ld_text_size                 368640 # program text (code) size in bytes
ld_data_base           0x0140000000 # program initialized data segment base
ld_data_size                  83584 # program init'ed `.data' and uninit'ed `.bss' size in bytes
ld_stack_base          0x011ff9b000 # program stack segment base (highest address in stack)
ld_stack_size                 16384 # program initial stack size
ld_prog_entry          0x0120013040 # program entry point (initial PC)
ld_environ_base        0x011ff97000 # program environment base address address
ld_target_big_endian              0 # target executable endian-ness, non-zero if big endian
mem.page_count                 1809 # total number of pages allocated
mem.page_mem                 14472k # total size of memory pages allocated
mem.ptab_misses              253856 # total first level page table misses
mem.ptab_accesses        1277244206 # total page table accesses
[...]
dl1.accesses               26302932 # total number of accesses
dl1.hits                   25924962 # total number of hits
dl1.misses                   377970 # total number of misses
dl1.replacements             377458 # total number of replacements
dl1.writebacks               118652 # total number of writebacks
dl1.invalidations                 0 # total number of invalidations
dl1.miss_rate                0.0144 # miss rate (i.e., misses/ref)
dl1.repl_rate                0.0144 # replacement rate (i.e., repls/ref)
dl1.wb_rate                  0.0045 # writeback rate (i.e., wrbks/ref)
dl1.inv_rate                 0.0000 # invalidation rate (i.e., invs/ref)
ul2.accesses                2092834 # total number of accesses
ul2.hits                    1970506 # total number of hits
ul2.misses                   122328 # total number of misses
ul2.replacements             118232 # total number of replacements
ul2.writebacks                47950 # total number of writebacks
ul2.invalidations                 0 # total number of invalidations
ul2.miss_rate                0.0585 # miss rate (i.e., misses/ref)
ul2.repl_rate                0.0565 # replacement rate (i.e., repls/ref)
ul2.wb_rate                  0.0229 # writeback rate (i.e., wrbks/ref)
ul2.inv_rate                 0.0000 # invalidation rate (i.e., invs/ref)
itlb.accesses             148503670 # total number of accesses
itlb.hits                 148503639 # total number of hits
itlb.misses                      31 # total number of misses
itlb.replacements                 0 # total number of replacements
itlb.writebacks                   0 # total number of writebacks
itlb.invalidations                0 # total number of invalidations
itlb.miss_rate               0.0000 # miss rate (i.e., misses/ref)
itlb.repl_rate               0.0000 # replacement rate (i.e., repls/ref)
itlb.wb_rate                 0.0000 # writeback rate (i.e., wrbks/ref)
itlb.inv_rate                0.0000 # invalidation rate (i.e., invs/ref)
dtlb.accesses              26443563 # total number of accesses
dtlb.hits                  26421945 # total number of hits
dtlb.misses                   21618 # total number of misses
dtlb.replacements             21490 # total number of replacements
dtlb.writebacks                   0 # total number of writebacks
dtlb.invalidations                0 # total number of invalidations
dtlb.miss_rate               0.0008 # miss rate (i.e., misses/ref)
dtlb.repl_rate               0.0008 # replacement rate (i.e., repls/ref)
dtlb.wb_rate                 0.0000 # writeback rate (i.e., wrbks/ref)
dtlb.inv_rate                0.0000 # invalidation rate (i.e., invs/ref)
sim_invalid_addrs                 0 # total non-speculative bogus addresses seen (debug var)
ld_text_base           0x0120000000 # program text (code) segment base
ld_text_size                 409600 # program text (code) size in bytes
ld_data_base           0x0140000000 # program initialized data segment base
ld_data_size                  83856 # program init'ed `.data' and uninit'ed `.bss' size in bytes
ld_stack_base          0x011ff9b000 # program stack segment base (highest address in stack)
ld_stack_size                 16384 # program initial stack size
ld_prog_entry          0x0120015520 # program entry point (initial PC)
ld_environ_base        0x011ff97000 # program environment base address address
ld_target_big_endian              0 # target executable endian-ness, non-zero if big endian
mem.page_count                  428 # total number of pages allocated
mem.page_mem                  3424k # total size of memory pages allocated
mem.ptab_misses              254674 # total first level page table misses
mem.ptab_accesses        1079025600 # total page table accesses
mem.ptab_miss_rate           0.0002 # first level page table miss rate

sim-outorder: SimpleScalar/Alpha Tool Set version 3.0 of August, 2003.
Copyright (c) 1994-2003 by Todd M. Austin, Ph.D. and SimpleScalar, LLC.
All Rights Reserved. This version of SimpleScalar is licensed for academic
non-commercial use.  No portion of this work may be used by any commercial
entity, or for any commercial purpose, without the prior written permission
of SimpleScalar, LLC (info@simplescalar.com).

warning: section `.comment' ignored...
sim: command line: sim-outorder -fastfwd 100000000 -max:inst 100000000 -bpred 2lev -bpred:2lev 1 2048 11 0 -mem:width 32 -mem:lat 300 2 ../../exe/vpr.exe net.in arch.in place.out dum.out -nodisp -place_only -init_t 5 -exit_t 0.005 -alpha_t 0.9412 -inner_num 2 

sim: simulation started @ Fri Oct 25 21:04:13 2024, options follow:

sim-outorder: This simulator implements a very detailed out-of-order issue
superscalar processor with a two-level memory system and speculative
execution support.  This simulator is a performance simulator, tracking the
latency of all pipeline operations.

# -config                     # load configuration from a file
# -dumpconfig                 # dump configuration to a file
# -h                    false # print help message    
# -v                    false # verbose operation     
# -d                    false # enable debug message  
# -i                    false # start in Dlite debugger
-seed                       1 # random number generator seed (0 for timer seed)
# -q                    false # initialize and terminate immediately
# -chkpt               <null> # restore EIO trace execution from <fname>
# -redir:sim           <null> # redirect simulator output to file (non-interactive only)
# -redir:prog          <null> # redirect simulated program output to file
-nice                       0 # simulator scheduling priority
-max:inst           100000000 # maximum number of inst's to execute
-fastfwd            100000000 # number of insts skipped before timing starts
# -ptrace              <null> # generate pipetrace, i.e., <fname|stdout|stderr> <range>
-fetch:ifqsize              4 # instruction fetch queue size (in insts)
-fetch:mplat                3 # extra branch mis-prediction latency
-fetch:speed                1 # speed of front-end of machine relative to execution core
-bpred                   2lev # branch predictor type {nottaken|taken|perfect|bimod|2lev|comb}
-bpred:bimod     2048 # bimodal predictor config (<table size>)
-bpred:2lev      1 2048 11 0 # 2-level predictor config (<l1size> <l2size> <hist_size> <xor>)
-bpred:comb      1024 # combining predictor config (<meta_table_size>)
-bpred:ras                  8 # return address stack size (0 for no return stack)
-bpred:btb       512 4 # BTB config (<num_sets> <associativity>)
# -bpred:spec_update       <null> # speculative predictors update in {ID|WB} (default non-spec)
-decode:width               4 # instruction decode B/W (insts/cycle)
-issue:width                4 # instruction issue B/W (insts/cycle)
-issue:inorder          false # run pipeline with in-order issue
-issue:wrongpath         true # issue instructions down wrong execution paths
-commit:width               4 # instruction commit B/W (insts/cycle)
-ruu:size                  16 # register update unit (RUU) size
-lsq:size                   8 # load/store queue (LSQ) size
-cache:dl1       dl1:128:32:4:l # l1 data cache config, i.e., {<config>|none}
-cache:dl1lat               1 # l1 data cache hit latency (in cycles)
-cache:dl2       ul2:1024:64:4:l # l2 data cache config, i.e., {<config>|none}
-cache:dl2lat               6 # l2 data cache hit latency (in cycles)
-cache:il1       il1:512:32:1:l # l1 inst cache config, i.e., {<config>|dl1|dl2|none}
-cache:il1lat               1 # l1 instruction cache hit latency (in cycles)
-cache:il2                dl2 # l2 instruction cache config, i.e., {<config>|dl2|none}
-cache:il2lat               6 # l2 instruction cache hit latency (in cycles)
-cache:flush            false # flush caches on system calls
-cache:icompress        false # convert 64-bit inst addresses to 32-bit inst equivalents
-mem:lat         300 2 # memory access latency (<first_chunk> <inter_chunk>)
-mem:width                 32 # memory access bus width (in bytes)
-tlb:itlb        itlb:16:4096:4:l # instruction TLB config, i.e., {<config>|none}
-tlb:dtlb        dtlb:32:4096:4:l # data TLB config, i.e., {<config>|none}
-tlb:lat                   30 # inst/data TLB miss latency (in cycles)
-res:ialu                   4 # total number of integer ALU's available
-res:imult                  1 # total number of integer multiplier/dividers available
-res:memport                2 # total number of memory system ports available (to CPU)
-res:fpalu                  4 # total number of floating point ALU's available
-res:fpmult                 1 # total number of floating point multiplier/dividers available
# -pcstat              <null> # profile stat(s) against text addr's (mult uses ok)
-bugcompat              false # operate in backward-compatible bugs mode (for testing only)

  Pipetrace range arguments are formatted as follows:

    {{@|#}<start>}:{{@|#|+}<end>}

  Both ends of the range are optional, if neither are specified, the entire
  execution is traced.  Ranges that start with a `@' designate an address
  range to be traced, those that start with an `#' designate a cycle count
  range.  All other range values represent an instruction count range.  The
  second argument, if specified with a `+', indicates a value relative
  to the first argument, e.g., 1000:+100 == 1000:1100.  Program symbols may
  be used in all contexts.

    Examples:   -ptrace FOO.trc #0:#1000
                -ptrace BAR.trc @2000:
                -ptrace BLAH.trc :1500
                -ptrace UXXE.trc :
                -ptrace FOOBAR.trc @main:+278

  Branch predictor configuration examples for 2-level predictor:
    Configurations:   N, M, W, X
      N   # entries in first level (# of shift register(s))
      W   width of shift register(s)
      M   # entries in 2nd level (# of counters, or other FSM)
      X   (yes-1/no-0) xor history and address for 2nd level index
    Sample predictors:
      GAg     : 1, W, 2^W, 0
      GAp     : 1, W, M (M > 2^W), 0
      PAg     : N, W, 2^W, 0
      PAp     : N, W, M (M == 2^(N+W)), 0
      gshare  : 1, W, 2^W, 1
  Predictor `comb' combines a bimodal and a 2-level predictor.

  The cache config parameter <config> has the following format:

    <name>:<nsets>:<bsize>:<assoc>:<repl>

    <name>   - name of the cache being defined
    <nsets>  - number of sets in the cache
    <bsize>  - block size of the cache
    <assoc>  - associativity of the cache
    <repl>   - block replacement strategy, 'l'-LRU, 'f'-FIFO, 'r'-random

    Examples:   -cache:dl1 dl1:4096:32:1:l
                -dtlb dtlb:128:4096:32:r

  Cache levels can be unified by pointing a level of the instruction cache
  hierarchy at the data cache hiearchy using the "dl1" and "dl2" cache
  configuration arguments.  Most sensible combinations are supported, e.g.,

    A unified l2 cache (il2 is pointed at dl2):
      -cache:il1 il1:128:64:1:l -cache:il2 dl2
      -cache:dl1 dl1:256:32:1:l -cache:dl2 ul2:1024:64:2:l

    Or, a fully unified cache hierarchy (il1 pointed at dl1):
      -cache:il1 dl1
      -cache:dl1 ul1:256:32:1:l -cache:dl2 ul2:1024:64:2:l



sim: ** fast forwarding 100000000 insts **
sim: ** starting performance simulation **

sim: ** simulation statistics **
sim_num_insn              100000002 # total number of instructions committed
sim_num_refs               23147907 # total number of loads and stores committed
sim_num_loads              18700740 # total number of loads committed
sim_num_stores         4447167.0000 # total number of stores committed
sim_num_branches           19702631 # total number of branches committed
sim_elapsed_time                 22 # total simulation time in seconds
sim_inst_rate          4545454.6364 # simulation speed (in insts/sec)
sim_total_insn            131243078 # total number of instructions executed
sim_total_refs             31393431 # total number of loads and stores executed
sim_total_loads            24211502 # total number of loads executed
sim_total_stores       7181929.0000 # total number of stores executed
sim_total_branches         27762453 # total number of branches executed
sim_cycle                 104066822 # total simulation time in cycles
sim_IPC                      0.9609 # instructions per cycle
sim_CPI                      1.0407 # cycles per instruction
sim_exec_BW                  1.2611 # total instructions (mis-spec + committed) per cycle
sim_IPB                      5.0755 # instruction per branch
IFQ_count                 283376292 # cumulative IFQ occupancy
IFQ_fcount                 65381997 # cumulative IFQ full count
ifq_occupancy                2.7230 # avg IFQ occupancy (insn's)
ifq_rate                     1.2611 # avg IFQ dispatch rate (insn/cycle)
ifq_latency                  2.1592 # avg IFQ occupant latency (cycle's)
ifq_full                     0.6283 # fraction of time (cycle's) IFQ was full
RUU_count                1059493490 # cumulative RUU occupancy
RUU_fcount                 40172905 # cumulative RUU full count
ruu_occupancy               10.1809 # avg RUU occupancy (insn's)
ruu_rate                     1.2611 # avg RUU dispatch rate (insn/cycle)
ruu_latency                  8.0728 # avg RUU occupant latency (cycle's)
ruu_full                     0.3860 # fraction of time (cycle's) RUU was full
LSQ_count                 282699268 # cumulative LSQ occupancy
LSQ_fcount                  4522185 # cumulative LSQ full count
lsq_occupancy                2.7165 # avg LSQ occupancy (insn's)
lsq_rate                     1.2611 # avg LSQ dispatch rate (insn/cycle)
lsq_latency                  2.1540 # avg LSQ occupant latency (cycle's)
lsq_full                     0.0435 # fraction of time (cycle's) LSQ was full
sim_slip                 1296008950 # total number of slip cycles
avg_sim_slip                12.9601 # the average slip between issue and retirement
bpred_2lev.lookups         30078565 # total number of bpred lookups
bpred_2lev.updates         19702630 # total number of updates
bpred_2lev.addr_hits       14715113 # total number of address-predicted hits
bpred_2lev.dir_hits        14887183 # total number of direction-predicted hits (includes addr-hits)
bpred_2lev.misses           4815447 # total number of misses
bpred_2lev.jr_hits          1237439 # total number of address-predicted hits for JR's
bpred_2lev.jr_seen          1409179 # total number of JR's seen
bpred_2lev.jr_non_ras_hits.PP        13654 # total number of address-predicted hits for non-RAS JR's
bpred_2lev.jr_non_ras_seen.PP        13673 # total number of non-RAS JR's seen
bpred_2lev.bpred_addr_rate    0.7469 # branch address-prediction rate (i.e., addr-hits/updates)
bpred_2lev.bpred_dir_rate    0.7556 # branch direction-prediction rate (i.e., all-hits/updates)
bpred_2lev.bpred_jr_rate    0.8781 # JR address-prediction rate (i.e., JR addr-hits/JRs seen)
bpred_2lev.bpred_jr_non_ras_rate.PP    0.9986 # non-RAS JR addr-pred rate (ie, non-RAS JR hits/JRs seen)
bpred_2lev.retstack_pushes      1704308 # total number of address pushed onto ret-addr stack
bpred_2lev.retstack_pops      3227247 # total number of address popped off of ret-addr stack
bpred_2lev.used_ras.PP      1395506 # total number of RAS predictions used
bpred_2lev.ras_hits.PP      1223785 # total number of RAS hits
bpred_2lev.ras_rate.PP    0.8769 # RAS prediction rate (i.e., RAS hits/used RAS)
il1.accesses              146105910 # total number of accesses
il1.hits                  144508495 # total number of hits
il1.misses                  1597415 # total number of misses
il1.replacements            1596965 # total number of replacements
il1.writebacks                    0 # total number of writebacks
il1.invalidations                 0 # total number of invalidations
il1.miss_rate                0.0109 # miss rate (i.e., misses/ref)
il1.repl_rate                0.0109 # replacement rate (i.e., repls/ref)
il1.wb_rate                  0.0000 # writeback rate (i.e., wrbks/ref)
il1.inv_rate                 0.0000 # invalidation rate (i.e., invs/ref)
dl1.accesses               26159954 # total number of accesses
dl1.hits                   25782068 # total number of hits
dl1.misses                   377886 # total number of misses
dl1.replacements             377374 # total number of replacements
dl1.writebacks               118672 # total number of writebacks
dl1.invalidations                 0 # total number of invalidations
dl1.miss_rate                0.0144 # miss rate (i.e., misses/ref)
dl1.repl_rate                0.0144 # replacement rate (i.e., repls/ref)
dl1.wb_rate                  0.0045 # writeback rate (i.e., wrbks/ref)
dl1.inv_rate                 0.0000 # invalidation rate (i.e., invs/ref)
ul2.accesses                2093973 # total number of accesses
ul2.hits                    1971469 # total number of hits
ul2.misses                   122504 # total number of misses
ul2.replacements             118408 # total number of replacements
ul2.writebacks                47972 # total number of writebacks
ul2.invalidations                 0 # total number of invalidations
ul2.miss_rate                0.0585 # miss rate (i.e., misses/ref)
ul2.repl_rate                0.0565 # replacement rate (i.e., repls/ref)
ul2.wb_rate                  0.0229 # writeback rate (i.e., wrbks/ref)
ul2.inv_rate                 0.0000 # invalidation rate (i.e., invs/ref)
itlb.accesses             146105910 # total number of accesses
itlb.hits                 146105879 # total number of hits
itlb.misses                      31 # total number of misses
itlb.replacements                 0 # total number of replacements
itlb.writebacks                   0 # total number of writebacks
itlb.invalidations                0 # total number of invalidations
itlb.miss_rate               0.0000 # miss rate (i.e., misses/ref)
itlb.repl_rate               0.0000 # replacement rate (i.e., repls/ref)
itlb.wb_rate                 0.0000 # writeback rate (i.e., wrbks/ref)
itlb.inv_rate                0.0000 # invalidation rate (i.e., invs/ref)
dtlb.accesses              26304955 # total number of accesses
dtlb.hits                  26283341 # total number of hits
dtlb.misses                   21614 # total number of misses
dtlb.replacements             21486 # total number of replacements
dtlb.writebacks                   0 # total number of writebacks
dtlb.invalidations                0 # total number of invalidations
dtlb.miss_rate               0.0008 # miss rate (i.e., misses/ref)
dtlb.repl_rate               0.0008 # replacement rate (i.e., repls/ref)
dtlb.wb_rate                 0.0000 # writeback rate (i.e., wrbks/ref)
dtlb.inv_rate                0.0000 # invalidation rate (i.e., invs/ref)
sim_invalid_addrs                 0 # total non-speculative bogus addresses seen (debug var)
ld_text_base           0x0120000000 # program text (code) segment base
ld_text_size                 409600 # program text (code) size in bytes
ld_data_base           0x0140000000 # program initialized data segment base
ld_data_size                  83856 # program init'ed `.data' and uninit'ed `.bss' size in bytes
ld_stack_base          0x011ff9b000 # program stack segment base (highest address in stack)
ld_stack_size                 16384 # program initial stack size
ld_prog_entry          0x0120015520 # program entry point (initial PC)
ld_environ_base        0x011ff97000 # program environment base address address
ld_target_big_endian              0 # target executable endian-ness, non-zero if big endian
mem.page_count                  428 # total number of pages allocated
mem.page_mem                  3424k # total size of memory pages allocated
mem.ptab_misses              254370 # total first level page table misses
mem.ptab_accesses        1072915990 # total page table accesses
mem.ptab_miss_rate           0.0002 # first level page table miss rate

