sim-outorder: SimpleScalar/Alpha Tool Set version 3.0 of August, 2003.
Copyright (c) 1994-2003 by Todd M. Austin, Ph.D. and SimpleScalar, LLC.
All Rights Reserved. This version of SimpleScalar is licensed for academic
non-commercial use.  No portion of this work may be used by any commercial
entity, or for any commercial purpose, without the prior written permission
of SimpleScalar, LLC (info@simplescalar.com).

warning: section `.comment' ignored...
sim: command line: sim-outorder -fastfwd 100000000 -max:inst 100000000 -bpred 2lev -bpred:2lev 1 8 3 1 -mem:width 32 -mem:lat 300 2 ../../exe/ammp.exe 

sim: simulation started @ Fri Oct 25 20:18:59 2024, options follow:

sim-outorder: This simulator implements a very detailed out-of-order issue
superscalar processor with a two-level memory system and speculative
execution support.  This simulator is a performance simulator, tracking the
latency of all pipeline operations.

# -config                     # load configuration from a file
# -dumpconfig                 # dump configuration to a file
# -h                    false # print help message    
# -v                    false # verbose operation     
# -d                    false # enable debug message  
# -i                    false # start in Dlite debugger
-seed                       1 # random number generator seed (0 for timer seed)
# -q                    false # initialize and terminate immediately
# -chkpt               <null> # restore EIO trace execution from <fname>
# -redir:sim           <null> # redirect simulator output to file (non-interactive only)
# -redir:prog          <null> # redirect simulated program output to file
-nice                       0 # simulator scheduling priority
-max:inst           100000000 # maximum number of inst's to execute
-fastfwd            100000000 # number of insts skipped before timing starts
# -ptrace              <null> # generate pipetrace, i.e., <fname|stdout|stderr> <range>
-fetch:ifqsize              4 # instruction fetch queue size (in insts)
-fetch:mplat                3 # extra branch mis-prediction latency
-fetch:speed                1 # speed of front-end of machine relative to execution core
-bpred                   2lev # branch predictor type {nottaken|taken|perfect|bimod|2lev|comb}
-bpred:bimod     2048 # bimodal predictor config (<table size>)
-bpred:2lev      1 8 3 1 # 2-level predictor config (<l1size> <l2size> <hist_size> <xor>)
-bpred:comb      1024 # combining predictor config (<meta_table_size>)
-bpred:ras                  8 # return address stack size (0 for no return stack)
-bpred:btb       512 4 # BTB config (<num_sets> <associativity>)
# -bpred:spec_update       <null> # speculative predictors update in {ID|WB} (default non-spec)
-decode:width               4 # instruction decode B/W (insts/cycle)
-issue:width                4 # instruction issue B/W (insts/cycle)
-issue:inorder          false # run pipeline with in-order issue
-issue:wrongpath         true # issue instructions down wrong execution paths
-commit:width               4 # instruction commit B/W (insts/cycle)
-ruu:size                  16 # register update unit (RUU) size
-lsq:size                   8 # load/store queue (LSQ) size
-cache:dl1       dl1:128:32:4:l # l1 data cache config, i.e., {<config>|none}
-cache:dl1lat               1 # l1 data cache hit latency (in cycles)
-cache:dl2       ul2:1024:64:4:l # l2 data cache config, i.e., {<config>|none}
-cache:dl2lat               6 # l2 data cache hit latency (in cycles)
-cache:il1       il1:512:32:1:l # l1 inst cache config, i.e., {<config>|dl1|dl2|none}
-cache:il1lat               1 # l1 instruction cache hit latency (in cycles)
-cache:il2                dl2 # l2 instruction cache config, i.e., {<config>|dl2|none}
-cache:il2lat               6 # l2 instruction cache hit latency (in cycles)
-cache:flush            false # flush caches on system calls
-cache:icompress        false # convert 64-bit inst addresses to 32-bit inst equivalents
-mem:lat         300 2 # memory access latency (<first_chunk> <inter_chunk>)
-mem:width                 32 # memory access bus width (in bytes)
-tlb:itlb        itlb:16:4096:4:l # instruction TLB config, i.e., {<config>|none}
-tlb:dtlb        dtlb:32:4096:4:l # data TLB config, i.e., {<config>|none}
-tlb:lat                   30 # inst/data TLB miss latency (in cycles)
-res:ialu                   4 # total number of integer ALU's available
-res:imult                  1 # total number of integer multiplier/dividers available
-res:memport                2 # total number of memory system ports available (to CPU)
-res:fpalu                  4 # total number of floating point ALU's available
-res:fpmult                 1 # total number of floating point multiplier/dividers available
# -pcstat              <null> # profile stat(s) against text addr's (mult uses ok)
-bugcompat              false # operate in backward-compatible bugs mode (for testing only)

  Pipetrace range arguments are formatted as follows:

    {{@|#}<start>}:{{@|#|+}<end>}

  Both ends of the range are optional, if neither are specified, the entire
  execution is traced.  Ranges that start with a `@' designate an address
  range to be traced, those that start with an `#' designate a cycle count
  range.  All other range values represent an instruction count range.  The
  second argument, if specified with a `+', indicates a value relative
  to the first argument, e.g., 1000:+100 == 1000:1100.  Program symbols may
  be used in all contexts.

    Examples:   -ptrace FOO.trc #0:#1000
                -ptrace BAR.trc @2000:
                -ptrace BLAH.trc :1500
                -ptrace UXXE.trc :
                -ptrace FOOBAR.trc @main:+278

  Branch predictor configuration examples for 2-level predictor:
    Configurations:   N, M, W, X
      N   # entries in first level (# of shift register(s))
      W   width of shift register(s)
      M   # entries in 2nd level (# of counters, or other FSM)
      X   (yes-1/no-0) xor history and address for 2nd level index
    Sample predictors:
      GAg     : 1, W, 2^W, 0
      GAp     : 1, W, M (M > 2^W), 0
      PAg     : N, W, 2^W, 0
      PAp     : N, W, M (M == 2^(N+W)), 0
      gshare  : 1, W, 2^W, 1
  Predictor `comb' combines a bimodal and a 2-level predictor.

  The cache config parameter <config> has the following format:

    <name>:<nsets>:<bsize>:<assoc>:<repl>

    <name>   - name of the cache being defined
    <nsets>  - number of sets in the cache
    <bsize>  - block size of the cache
    <assoc>  - associativity of the cache
    <repl>   - block replacement strategy, 'l'-LRU, 'f'-FIFO, 'r'-random

    Examples:   -cache:dl1 dl1:4096:32:1:l
                -dtlb dtlb:128:4096:32:r

  Cache levels can be unified by pointing a level of the instruction cache
  hierarchy at the data cache hiearchy using the "dl1" and "dl2" cache
  configuration arguments.  Most sensible combinations are supported, e.g.,

    A unified l2 cache (il2 is pointed at dl2):
      -cache:il1 il1:128:64:1:l -cache:il2 dl2
      -cache:dl1 dl1:256:32:1:l -cache:dl2 ul2:1024:64:2:l

    Or, a fully unified cache hierarchy (il1 pointed at dl1):
      -cache:il1 dl1
      -cache:dl1 ul1:256:32:1:l -cache:dl2 ul2:1024:64:2:l



sim: ** fast forwarding 100000000 insts **
sim: ** starting performance simulation **

sim: ** simulation statistics **
sim_num_insn              100000001 # total number of instructions committed
sim_num_refs               30101334 # total number of loads and stores committed
sim_num_loads              23145477 # total number of loads committed
sim_num_stores         6955857.0000 # total number of stores committed
sim_num_branches           20651019 # total number of branches committed
sim_elapsed_time                114 # total simulation time in seconds
sim_inst_rate           877192.9912 # simulation speed (in insts/sec)
sim_total_insn            116441597 # total number of instructions executed
sim_total_refs             33741078 # total number of loads and stores executed
sim_total_loads            26388432 # total number of loads executed
sim_total_stores       7352646.0000 # total number of stores executed
sim_total_branches         23754488 # total number of branches executed
sim_cycle                1044392693 # total simulation time in cycles
sim_IPC                      0.0957 # instructions per cycle
sim_CPI                     10.4439 # cycles per instruction
sim_exec_BW                  0.1115 # total instructions (mis-spec + committed) per cycle
sim_IPB                      4.8424 # instruction per branch
IFQ_count                4095978218 # cumulative IFQ occupancy
IFQ_fcount               1019258266 # cumulative IFQ full count
ifq_occupancy                3.9219 # avg IFQ occupancy (insn's)
ifq_rate                     0.1115 # avg IFQ dispatch rate (insn/cycle)
ifq_latency                 35.1762 # avg IFQ occupant latency (cycle's)
ifq_full                     0.9759 # fraction of time (cycle's) IFQ was full
RUU_count               16355670083 # cumulative RUU occupancy
RUU_fcount               1000944631 # cumulative RUU full count
ruu_occupancy               15.6605 # avg RUU occupancy (insn's)
ruu_rate                     0.1115 # avg RUU dispatch rate (insn/cycle)
ruu_latency                140.4624 # avg RUU occupant latency (cycle's)
ruu_full                     0.9584 # fraction of time (cycle's) RUU was full
LSQ_count                8047188500 # cumulative LSQ occupancy
LSQ_fcount                985523771 # cumulative LSQ full count
lsq_occupancy                7.7051 # avg LSQ occupancy (insn's)
lsq_rate                     0.1115 # avg LSQ dispatch rate (insn/cycle)
lsq_latency                 69.1092 # avg LSQ occupant latency (cycle's)
lsq_full                     0.9436 # fraction of time (cycle's) LSQ was full
sim_slip                24461310426 # total number of slip cycles
avg_sim_slip               244.6131 # the average slip between issue and retirement
bpred_2lev.lookups         24728310 # total number of bpred lookups
bpred_2lev.updates         20651018 # total number of updates
bpred_2lev.addr_hits       17720700 # total number of address-predicted hits
bpred_2lev.dir_hits        17759147 # total number of direction-predicted hits (includes addr-hits)
bpred_2lev.misses           2891871 # total number of misses
bpred_2lev.jr_hits          1106519 # total number of address-predicted hits for JR's
bpred_2lev.jr_seen          1144770 # total number of JR's seen
bpred_2lev.jr_non_ras_hits.PP         3060 # total number of address-predicted hits for non-RAS JR's
bpred_2lev.jr_non_ras_seen.PP         3065 # total number of non-RAS JR's seen
bpred_2lev.bpred_addr_rate    0.8581 # branch address-prediction rate (i.e., addr-hits/updates)
bpred_2lev.bpred_dir_rate    0.8600 # branch direction-prediction rate (i.e., all-hits/updates)
bpred_2lev.bpred_jr_rate    0.9666 # JR address-prediction rate (i.e., JR addr-hits/JRs seen)
bpred_2lev.bpred_jr_non_ras_rate.PP    0.9984 # non-RAS JR addr-pred rate (ie, non-RAS JR hits/JRs seen)
bpred_2lev.retstack_pushes      1421436 # total number of address pushed onto ret-addr stack
bpred_2lev.retstack_pops      1279364 # total number of address popped off of ret-addr stack
bpred_2lev.used_ras.PP      1141705 # total number of RAS predictions used
bpred_2lev.ras_hits.PP      1103459 # total number of RAS hits
bpred_2lev.ras_rate.PP    0.9665 # RAS prediction rate (i.e., RAS hits/used RAS)
il1.accesses              122190635 # total number of accesses
il1.hits                  121563448 # total number of hits
il1.misses                   627187 # total number of misses
il1.replacements             626863 # total number of replacements
il1.writebacks                    0 # total number of writebacks
il1.invalidations                 0 # total number of invalidations
il1.miss_rate                0.0051 # miss rate (i.e., misses/ref)
il1.repl_rate                0.0051 # replacement rate (i.e., repls/ref)
il1.wb_rate                  0.0000 # writeback rate (i.e., wrbks/ref)
il1.inv_rate                 0.0000 # invalidation rate (i.e., invs/ref)
dl1.accesses               28192111 # total number of accesses
dl1.hits                   24834865 # total number of hits
dl1.misses                  3357246 # total number of misses
dl1.replacements            3356734 # total number of replacements
dl1.writebacks                43924 # total number of writebacks
dl1.invalidations                 0 # total number of invalidations
dl1.miss_rate                0.1191 # miss rate (i.e., misses/ref)
dl1.repl_rate                0.1191 # replacement rate (i.e., repls/ref)
dl1.wb_rate                  0.0016 # writeback rate (i.e., wrbks/ref)
dl1.inv_rate                 0.0000 # invalidation rate (i.e., invs/ref)
ul2.accesses                4028357 # total number of accesses
ul2.hits                     685984 # total number of hits
ul2.misses                  3342373 # total number of misses
ul2.replacements            3339001 # total number of replacements
ul2.writebacks                27503 # total number of writebacks
ul2.invalidations                 0 # total number of invalidations
ul2.miss_rate                0.8297 # miss rate (i.e., misses/ref)
ul2.repl_rate                0.8289 # replacement rate (i.e., repls/ref)
ul2.wb_rate                  0.0068 # writeback rate (i.e., wrbks/ref)
ul2.inv_rate                 0.0000 # invalidation rate (i.e., invs/ref)
itlb.accesses             122190635 # total number of accesses
itlb.hits                 122190614 # total number of hits
itlb.misses                      21 # total number of misses
itlb.replacements                 0 # total number of replacements
itlb.writebacks                   0 # total number of writebacks
itlb.invalidations                0 # total number of invalidations
itlb.miss_rate               0.0000 # miss rate (i.e., misses/ref)
itlb.repl_rate               0.0000 # replacement rate (i.e., repls/ref)
itlb.wb_rate                 0.0000 # writeback rate (i.e., wrbks/ref)
itlb.inv_rate                0.0000 # invalidation rate (i.e., invs/ref)
dtlb.accesses              31598337 # total number of accesses
dtlb.hits                  29529341 # total number of hits
dtlb.misses                 2068996 # total number of misses
dtlb.replacements           2068868 # total number of replacements
dtlb.writebacks                   0 # total number of writebacks
dtlb.invalidations                0 # total number of invalidations
dtlb.miss_rate               0.0655 # miss rate (i.e., misses/ref)
dtlb.repl_rate               0.0655 # replacement rate (i.e., repls/ref)
dtlb.wb_rate                 0.0000 # writeback rate (i.e., wrbks/ref)
dtlb.inv_rate                0.0000 # invalidation rate (i.e., invs/ref)
sim_invalid_addrs                 0 # total non-speculative bogus addresses seen (debug var)
ld_text_base           0x0120000000 # program text (code) segment base
ld_text_size                 368640 # program text (code) size in bytes
ld_data_base           0x0140000000 # program initialized data segment base
ld_data_size                  83584 # program init'ed `.data' and uninit'ed `.bss' size in bytes
ld_stack_base          0x011ff9b000 # program stack segment base (highest address in stack)
ld_stack_size                 16384 # program initial stack size
ld_prog_entry          0x0120013040 # program entry point (initial PC)
ld_environ_base        0x011ff97000 # program environment base address address
ld_target_big_endian              0 # target executable endian-ness, non-zero if big endian
mem.page_count                 1809 # total number of pages allocated
mem.page_mem                 14472k # total size of memory pages allocated
mem.ptab_misses              254980 # total first level page table misses
mem.ptab_accesses        1179760630 # total page table accesses
mem.ptab_miss_rate           0.0002 # first level page table miss rate

sim-outorder: SimpleScalar/Alpha Tool Set version 3.0 of August, 2003.
Copyright (c) 1994-2003 by Todd M. Austin, Ph.D. and SimpleScalar, LLC.
All Rights Reserved. This version of SimpleScalar is licensed for academic
non-commercial use.  No portion of this work may be used by any commercial
entity, or for any commercial purpose, without the prior written permission
of SimpleScalar, LLC (info@simplescalar.com).

warning: section `.comment' ignored...
sim: command line: sim-outorder -fastfwd 100000000 -max:inst 100000000 -bpred 2lev -bpred:2lev 1 32 5 1 -mem:width 32 -mem:lat 300 2 ../../exe/ammp.exe 

sim: simulation started @ Fri Oct 25 20:20:54 2024, options follow:

sim-outorder: This simulator implements a very detailed out-of-order issue
superscalar processor with a two-level memory system and speculative
execution support.  This simulator is a performance simulator, tracking the
latency of all pipeline operations.

# -config                     # load configuration from a file
# -dumpconfig                 # dump configuration to a file
# -h                    false # print help message    
# -v                    false # verbose operation     
# -d                    false # enable debug message  
# -i                    false # start in Dlite debugger
-seed                       1 # random number generator seed (0 for timer seed)
# -q                    false # initialize and terminate immediately
# -chkpt               <null> # restore EIO trace execution from <fname>
# -redir:sim           <null> # redirect simulator output to file (non-interactive only)
# -redir:prog          <null> # redirect simulated program output to file
-nice                       0 # simulator scheduling priority
-max:inst           100000000 # maximum number of inst's to execute
-fastfwd            100000000 # number of insts skipped before timing starts
# -ptrace              <null> # generate pipetrace, i.e., <fname|stdout|stderr> <range>
-fetch:ifqsize              4 # instruction fetch queue size (in insts)
-fetch:mplat                3 # extra branch mis-prediction latency
-fetch:speed                1 # speed of front-end of machine relative to execution core
-bpred                   2lev # branch predictor type {nottaken|taken|perfect|bimod|2lev|comb}
-bpred:bimod     2048 # bimodal predictor config (<table size>)
-bpred:2lev      1 32 5 1 # 2-level predictor config (<l1size> <l2size> <hist_size> <xor>)
-bpred:comb      1024 # combining predictor config (<meta_table_size>)
-bpred:ras                  8 # return address stack size (0 for no return stack)
-bpred:btb       512 4 # BTB config (<num_sets> <associativity>)
# -bpred:spec_update       <null> # speculative predictors update in {ID|WB} (default non-spec)
-decode:width               4 # instruction decode B/W (insts/cycle)
-issue:width                4 # instruction issue B/W (insts/cycle)
-issue:inorder          false # run pipeline with in-order issue
-issue:wrongpath         true # issue instructions down wrong execution paths
-commit:width               4 # instruction commit B/W (insts/cycle)
-ruu:size                  16 # register update unit (RUU) size
-lsq:size                   8 # load/store queue (LSQ) size
-cache:dl1       dl1:128:32:4:l # l1 data cache config, i.e., {<config>|none}
-cache:dl1lat               1 # l1 data cache hit latency (in cycles)
-cache:dl2       ul2:1024:64:4:l # l2 data cache config, i.e., {<config>|none}
-cache:dl2lat               6 # l2 data cache hit latency (in cycles)
-cache:il1       il1:512:32:1:l # l1 inst cache config, i.e., {<config>|dl1|dl2|none}
-cache:il1lat               1 # l1 instruction cache hit latency (in cycles)
-cache:il2                dl2 # l2 instruction cache config, i.e., {<config>|dl2|none}
-cache:il2lat               6 # l2 instruction cache hit latency (in cycles)
-cache:flush            false # flush caches on system calls
-cache:icompress        false # convert 64-bit inst addresses to 32-bit inst equivalents
-mem:lat         300 2 # memory access latency (<first_chunk> <inter_chunk>)
-mem:width                 32 # memory access bus width (in bytes)
-tlb:itlb        itlb:16:4096:4:l # instruction TLB config, i.e., {<config>|none}
-tlb:dtlb        dtlb:32:4096:4:l # data TLB config, i.e., {<config>|none}
-tlb:lat                   30 # inst/data TLB miss latency (in cycles)
-res:ialu                   4 # total number of integer ALU's available
-res:imult                  1 # total number of integer multiplier/dividers available
-res:memport                2 # total number of memory system ports available (to CPU)
-res:fpalu                  4 # total number of floating point ALU's available
-res:fpmult                 1 # total number of floating point multiplier/dividers available
# -pcstat              <null> # profile stat(s) against text addr's (mult uses ok)
-bugcompat              false # operate in backward-compatible bugs mode (for testing only)

  Pipetrace range arguments are formatted as follows:

    {{@|#}<start>}:{{@|#|+}<end>}

  Both ends of the range are optional, if neither are specified, the entire
  execution is traced.  Ranges that start with a `@' designate an address
  range to be traced, those that start with an `#' designate a cycle count
  range.  All other range values represent an instruction count range.  The
  second argument, if specified with a `+', indicates a value relative
  to the first argument, e.g., 1000:+100 == 1000:1100.  Program symbols may
  be used in all contexts.

    Examples:   -ptrace FOO.trc #0:#1000
                -ptrace BAR.trc @2000:
                -ptrace BLAH.trc :1500
                -ptrace UXXE.trc :
                -ptrace FOOBAR.trc @main:+278

  Branch predictor configuration examples for 2-level predictor:
    Configurations:   N, M, W, X
      N   # entries in first level (# of shift register(s))
      W   width of shift register(s)
      M   # entries in 2nd level (# of counters, or other FSM)
      X   (yes-1/no-0) xor history and address for 2nd level index
    Sample predictors:
      GAg     : 1, W, 2^W, 0
      GAp     : 1, W, M (M > 2^W), 0
      PAg     : N, W, 2^W, 0
      PAp     : N, W, M (M == 2^(N+W)), 0
      gshare  : 1, W, 2^W, 1
  Predictor `comb' combines a bimodal and a 2-level predictor.

  The cache config parameter <config> has the following format:

    <name>:<nsets>:<bsize>:<assoc>:<repl>

    <name>   - name of the cache being defined
    <nsets>  - number of sets in the cache
    <bsize>  - block size of the cache
    <assoc>  - associativity of the cache
    <repl>   - block replacement strategy, 'l'-LRU, 'f'-FIFO, 'r'-random

    Examples:   -cache:dl1 dl1:4096:32:1:l
                -dtlb dtlb:128:4096:32:r

  Cache levels can be unified by pointing a level of the instruction cache
  hierarchy at the data cache hiearchy using the "dl1" and "dl2" cache
  configuration arguments.  Most sensible combinations are supported, e.g.,

    A unified l2 cache (il2 is pointed at dl2):
      -cache:il1 il1:128:64:1:l -cache:il2 dl2
      -cache:dl1 dl1:256:32:1:l -cache:dl2 ul2:1024:64:2:l

    Or, a fully unified cache hierarchy (il1 pointed at dl1):
      -cache:il1 dl1
      -cache:dl1 ul1:256:32:1:l -cache:dl2 ul2:1024:64:2:l



sim: ** fast forwarding 100000000 insts **
sim: ** starting performance simulation **

sim: ** simulation statistics **
sim_num_insn              100000001 # total number of instructions committed
sim_num_refs               30101334 # total number of loads and stores committed
sim_num_loads              23145477 # total number of loads committed
sim_num_stores         6955857.0000 # total number of stores committed
sim_num_branches           20651019 # total number of branches committed
sim_elapsed_time                 97 # total simulation time in seconds
sim_inst_rate          1030927.8454 # simulation speed (in insts/sec)
sim_total_insn            115201602 # total number of instructions executed
sim_total_refs             33430385 # total number of loads and stores executed
sim_total_loads            26091965 # total number of loads executed
sim_total_stores       7338420.0000 # total number of stores executed
sim_total_branches         23410980 # total number of branches executed
sim_cycle                1042406377 # total simulation time in cycles
sim_IPC                      0.0959 # instructions per cycle
sim_CPI                     10.4241 # cycles per instruction
sim_exec_BW                  0.1105 # total instructions (mis-spec + committed) per cycle
sim_IPB                      4.8424 # instruction per branch
IFQ_count                4094917630 # cumulative IFQ occupancy
IFQ_fcount               1019147452 # cumulative IFQ full count
ifq_occupancy                3.9283 # avg IFQ occupancy (insn's)
ifq_rate                     0.1105 # avg IFQ dispatch rate (insn/cycle)
ifq_latency                 35.5457 # avg IFQ occupant latency (cycle's)
ifq_full                     0.9777 # fraction of time (cycle's) IFQ was full
RUU_count               16352063384 # cumulative RUU occupancy
RUU_fcount               1001908391 # cumulative RUU full count
ruu_occupancy               15.6868 # avg RUU occupancy (insn's)
ruu_rate                     0.1105 # avg RUU dispatch rate (insn/cycle)
ruu_latency                141.9430 # avg RUU occupant latency (cycle's)
ruu_full                     0.9611 # fraction of time (cycle's) RUU was full
LSQ_count                8046367182 # cumulative LSQ occupancy
LSQ_fcount                985275269 # cumulative LSQ full count
lsq_occupancy                7.7190 # avg LSQ occupancy (insn's)
lsq_rate                     0.1105 # avg LSQ dispatch rate (insn/cycle)
lsq_latency                 69.8460 # avg LSQ occupant latency (cycle's)
lsq_full                     0.9452 # fraction of time (cycle's) LSQ was full
sim_slip                24450340902 # total number of slip cycles
avg_sim_slip               244.5034 # the average slip between issue and retirement
bpred_2lev.lookups         24113601 # total number of bpred lookups
bpred_2lev.updates         20651018 # total number of updates
bpred_2lev.addr_hits       17985902 # total number of address-predicted hits
bpred_2lev.dir_hits        18024814 # total number of direction-predicted hits (includes addr-hits)
bpred_2lev.misses           2626204 # total number of misses
bpred_2lev.jr_hits          1106053 # total number of address-predicted hits for JR's
bpred_2lev.jr_seen          1144770 # total number of JR's seen
bpred_2lev.jr_non_ras_hits.PP         3060 # total number of address-predicted hits for non-RAS JR's
bpred_2lev.jr_non_ras_seen.PP         3065 # total number of non-RAS JR's seen
bpred_2lev.bpred_addr_rate    0.8709 # branch address-prediction rate (i.e., addr-hits/updates)
bpred_2lev.bpred_dir_rate    0.8728 # branch direction-prediction rate (i.e., all-hits/updates)
bpred_2lev.bpred_jr_rate    0.9662 # JR address-prediction rate (i.e., JR addr-hits/JRs seen)
bpred_2lev.bpred_jr_non_ras_rate.PP    0.9984 # non-RAS JR addr-pred rate (ie, non-RAS JR hits/JRs seen)
bpred_2lev.retstack_pushes      1424293 # total number of address pushed onto ret-addr stack
bpred_2lev.retstack_pops      1287019 # total number of address popped off of ret-addr stack
bpred_2lev.used_ras.PP      1141705 # total number of RAS predictions used
bpred_2lev.ras_hits.PP      1102993 # total number of RAS hits
bpred_2lev.ras_rate.PP    0.9661 # RAS prediction rate (i.e., RAS hits/used RAS)
il1.accesses              120318614 # total number of accesses
il1.hits                  119680953 # total number of hits
il1.misses                   637661 # total number of misses
il1.replacements             637330 # total number of replacements
il1.writebacks                    0 # total number of writebacks
il1.invalidations                 0 # total number of invalidations
il1.miss_rate                0.0053 # miss rate (i.e., misses/ref)
il1.repl_rate                0.0053 # replacement rate (i.e., repls/ref)
il1.wb_rate                  0.0000 # writeback rate (i.e., wrbks/ref)
il1.inv_rate                 0.0000 # invalidation rate (i.e., invs/ref)
dl1.accesses               28078568 # total number of accesses
dl1.hits                   24721550 # total number of hits
dl1.misses                  3357018 # total number of misses
dl1.replacements            3356506 # total number of replacements
dl1.writebacks                43889 # total number of writebacks
dl1.invalidations                 0 # total number of invalidations
dl1.miss_rate                0.1196 # miss rate (i.e., misses/ref)
dl1.repl_rate                0.1195 # replacement rate (i.e., repls/ref)
dl1.wb_rate                  0.0016 # writeback rate (i.e., wrbks/ref)
dl1.inv_rate                 0.0000 # invalidation rate (i.e., invs/ref)
ul2.accesses                4038568 # total number of accesses
ul2.hits                     696965 # total number of hits
ul2.misses                  3341603 # total number of misses
ul2.replacements            3338229 # total number of replacements
ul2.writebacks                27498 # total number of writebacks
ul2.invalidations                 0 # total number of invalidations
ul2.miss_rate                0.8274 # miss rate (i.e., misses/ref)
ul2.repl_rate                0.8266 # replacement rate (i.e., repls/ref)
ul2.wb_rate                  0.0068 # writeback rate (i.e., wrbks/ref)
ul2.inv_rate                 0.0000 # invalidation rate (i.e., invs/ref)
itlb.accesses             120318614 # total number of accesses
itlb.hits                 120318593 # total number of hits
itlb.misses                      21 # total number of misses
itlb.replacements                 0 # total number of replacements
itlb.writebacks                   0 # total number of writebacks
itlb.invalidations                0 # total number of invalidations
itlb.miss_rate               0.0000 # miss rate (i.e., misses/ref)
itlb.repl_rate               0.0000 # replacement rate (i.e., repls/ref)
itlb.wb_rate                 0.0000 # writeback rate (i.e., wrbks/ref)
itlb.inv_rate                0.0000 # invalidation rate (i.e., invs/ref)
dtlb.accesses              31512881 # total number of accesses
dtlb.hits                  29444018 # total number of hits
dtlb.misses                 2068863 # total number of misses
dtlb.replacements           2068735 # total number of replacements
dtlb.writebacks                   0 # total number of writebacks
dtlb.invalidations                0 # total number of invalidations
dtlb.miss_rate               0.0657 # miss rate (i.e., misses/ref)
dtlb.repl_rate               0.0656 # replacement rate (i.e., repls/ref)
dtlb.wb_rate                 0.0000 # writeback rate (i.e., wrbks/ref)
dtlb.inv_rate                0.0000 # invalidation rate (i.e., invs/ref)
sim_invalid_addrs                 0 # total non-speculative bogus addresses seen (debug var)
ld_text_base           0x0120000000 # program text (code) segment base
ld_text_size                 368640 # program text (code) size in bytes
ld_data_base           0x0140000000 # program initialized data segment base
ld_data_size                  83584 # program init'ed `.data' and uninit'ed `.bss' size in bytes
ld_stack_base          0x011ff9b000 # program stack segment base (highest address in stack)
ld_stack_size                 16384 # program initial stack size
ld_prog_entry          0x0120013040 # program entry point (initial PC)
ld_environ_base        0x011ff97000 # program environment base address address
ld_target_big_endian              0 # target executable endian-ness, non-zero if big endian
mem.page_count                 1809 # total number of pages allocated
mem.page_mem                 14472k # total size of memory pages allocated
mem.ptab_misses              256455 # total first level page table misses
mem.ptab_accesses        1175143158 # total page table accesses
mem.ptab_miss_rate           0.0002 # first level page table miss rate

sim-outorder: SimpleScalar/Alpha Tool Set version 3.0 of August, 2003.
Copyright (c) 1994-2003 by Todd M. Austin, Ph.D. and SimpleScalar, LLC.
All Rights Reserved. This version of SimpleScalar is licensed for academic
non-commercial use.  No portion of this work may be used by any commercial
entity, or for any commercial purpose, without the prior written permission
of SimpleScalar, LLC (info@simplescalar.com).

warning: section `.comment' ignored...
sim: command line: sim-outorder -fastfwd 100000000 -max:inst 100000000 -bpred 2lev -bpred:2lev 1 128 7 1 -mem:width 32 -mem:lat 300 2 ../../exe/ammp.exe 

sim: simulation started @ Fri Oct 25 20:22:31 2024, options follow:

sim-outorder: This simulator implements a very detailed out-of-order issue
superscalar processor with a two-level memory system and speculative
execution support.  This simulator is a performance simulator, tracking the
latency of all pipeline operations.

# -config                     # load configuration from a file
# -dumpconfig                 # dump configuration to a file
# -h                    false # print help message    
# -v                    false # verbose operation     
# -d                    false # enable debug message  
# -i                    false # start in Dlite debugger
-seed                       1 # random number generator seed (0 for timer seed)
# -q                    false # initialize and terminate immediately
# -chkpt               <null> # restore EIO trace execution from <fname>
# -redir:sim           <null> # redirect simulator output to file (non-interactive only)
# -redir:prog          <null> # redirect simulated program output to file
-nice                       0 # simulator scheduling priority
-max:inst           100000000 # maximum number of inst's to execute
-fastfwd            100000000 # number of insts skipped before timing starts
# -ptrace              <null> # generate pipetrace, i.e., <fname|stdout|stderr> <range>
-fetch:ifqsize              4 # instruction fetch queue size (in insts)
-fetch:mplat                3 # extra branch mis-prediction latency
-fetch:speed                1 # speed of front-end of machine relative to execution core
-bpred                   2lev # branch predictor type {nottaken|taken|perfect|bimod|2lev|comb}
-bpred:bimod     2048 # bimodal predictor config (<table size>)
-bpred:2lev      1 128 7 1 # 2-level predictor config (<l1size> <l2size> <hist_size> <xor>)
-bpred:comb      1024 # combining predictor config (<meta_table_size>)
-bpred:ras                  8 # return address stack size (0 for no return stack)
-bpred:btb       512 4 # BTB config (<num_sets> <associativity>)
# -bpred:spec_update       <null> # speculative predictors update in {ID|WB} (default non-spec)
-decode:width               4 # instruction decode B/W (insts/cycle)
-issue:width                4 # instruction issue B/W (insts/cycle)
-issue:inorder          false # run pipeline with in-order issue
-issue:wrongpath         true # issue instructions down wrong execution paths
-commit:width               4 # instruction commit B/W (insts/cycle)
-ruu:size                  16 # register update unit (RUU) size
-lsq:size                   8 # load/store queue (LSQ) size
-cache:dl1       dl1:128:32:4:l # l1 data cache config, i.e., {<config>|none}
-cache:dl1lat               1 # l1 data cache hit latency (in cycles)
-cache:dl2       ul2:1024:64:4:l # l2 data cache config, i.e., {<config>|none}
-cache:dl2lat               6 # l2 data cache hit latency (in cycles)
-cache:il1       il1:512:32:1:l # l1 inst cache config, i.e., {<config>|dl1|dl2|none}
-cache:il1lat               1 # l1 instruction cache hit latency (in cycles)
-cache:il2                dl2 # l2 instruction cache config, i.e., {<config>|dl2|none}
-cache:il2lat               6 # l2 instruction cache hit latency (in cycles)
-cache:flush            false # flush caches on system calls
-cache:icompress        false # convert 64-bit inst addresses to 32-bit inst equivalents
-mem:lat         300 2 # memory access latency (<first_chunk> <inter_chunk>)
-mem:width                 32 # memory access bus width (in bytes)
-tlb:itlb        itlb:16:4096:4:l # instruction TLB config, i.e., {<config>|none}
-tlb:dtlb        dtlb:32:4096:4:l # data TLB config, i.e., {<config>|none}
-tlb:lat                   30 # inst/data TLB miss latency (in cycles)
-res:ialu                   4 # total number of integer ALU's available
-res:imult                  1 # total number of integer multiplier/dividers available
-res:memport                2 # total number of memory system ports available (to CPU)
-res:fpalu                  4 # total number of floating point ALU's available
-res:fpmult                 1 # total number of floating point multiplier/dividers available
# -pcstat              <null> # profile stat(s) against text addr's (mult uses ok)
-bugcompat              false # operate in backward-compatible bugs mode (for testing only)

  Pipetrace range arguments are formatted as follows:

    {{@|#}<start>}:{{@|#|+}<end>}

  Both ends of the range are optional, if neither are specified, the entire
  execution is traced.  Ranges that start with a `@' designate an address
  range to be traced, those that start with an `#' designate a cycle count
  range.  All other range values represent an instruction count range.  The
  second argument, if specified with a `+', indicates a value relative
  to the first argument, e.g., 1000:+100 == 1000:1100.  Program symbols may
  be used in all contexts.

    Examples:   -ptrace FOO.trc #0:#1000
                -ptrace BAR.trc @2000:
                -ptrace BLAH.trc :1500
                -ptrace UXXE.trc :
                -ptrace FOOBAR.trc @main:+278

  Branch predictor configuration examples for 2-level predictor:
    Configurations:   N, M, W, X
      N   # entries in first level (# of shift register(s))
      W   width of shift register(s)
      M   # entries in 2nd level (# of counters, or other FSM)
      X   (yes-1/no-0) xor history and address for 2nd level index
    Sample predictors:
      GAg     : 1, W, 2^W, 0
      GAp     : 1, W, M (M > 2^W), 0
      PAg     : N, W, 2^W, 0
      PAp     : N, W, M (M == 2^(N+W)), 0
      gshare  : 1, W, 2^W, 1
  Predictor `comb' combines a bimodal and a 2-level predictor.

  The cache config parameter <config> has the following format:

    <name>:<nsets>:<bsize>:<assoc>:<repl>

    <name>   - name of the cache being defined
    <nsets>  - number of sets in the cache
    <bsize>  - block size of the cache
    <assoc>  - associativity of the cache
    <repl>   - block replacement strategy, 'l'-LRU, 'f'-FIFO, 'r'-random

    Examples:   -cache:dl1 dl1:4096:32:1:l
                -dtlb dtlb:128:4096:32:r

  Cache levels can be unified by pointing a level of the instruction cache
  hierarchy at the data cache hiearchy using the "dl1" and "dl2" cache
  configuration arguments.  Most sensible combinations are supported, e.g.,

    A unified l2 cache (il2 is pointed at dl2):
      -cache:il1 il1:128:64:1:l -cache:il2 dl2
      -cache:dl1 dl1:256:32:1:l -cache:dl2 ul2:1024:64:2:l

    Or, a fully unified cache hierarchy (il1 pointed at dl1):
      -cache:il1 dl1
      -cache:dl1 ul1:256:32:1:l -cache:dl2 ul2:1024:64:2:l



sim: ** fast forwarding 100000000 insts **
sim: ** starting performance simulation **

sim: ** simulation statistics **
sim_num_insn              100000001 # total number of instructions committed
sim_num_refs               30101334 # total number of loads and stores committed
sim_num_loads              23145477 # total number of loads committed
sim_num_stores         6955857.0000 # total number of stores committed
sim_num_branches           20651019 # total number of branches committed
sim_elapsed_time                 98 # total simulation time in seconds
sim_inst_rate          1020408.1735 # simulation speed (in insts/sec)
sim_total_insn            111679542 # total number of instructions executed
sim_total_refs             33160061 # total number of loads and stores executed
sim_total_loads            25708304 # total number of loads executed
sim_total_stores       7451757.0000 # total number of stores executed
sim_total_branches         22799114 # total number of branches executed
sim_cycle                1039041405 # total simulation time in cycles
sim_IPC                      0.0962 # instructions per cycle
sim_CPI                     10.3904 # cycles per instruction
sim_exec_BW                  0.1075 # total instructions (mis-spec + committed) per cycle
sim_IPB                      4.8424 # instruction per branch
IFQ_count                4092112689 # cumulative IFQ occupancy
IFQ_fcount               1018637176 # cumulative IFQ full count
ifq_occupancy                3.9384 # avg IFQ occupancy (insn's)
ifq_rate                     0.1075 # avg IFQ dispatch rate (insn/cycle)
ifq_latency                 36.6416 # avg IFQ occupant latency (cycle's)
ifq_full                     0.9804 # fraction of time (cycle's) IFQ was full
RUU_count               16349912324 # cumulative RUU occupancy
RUU_fcount               1003227765 # cumulative RUU full count
ruu_occupancy               15.7356 # avg RUU occupancy (insn's)
ruu_rate                     0.1075 # avg RUU dispatch rate (insn/cycle)
ruu_latency                146.4002 # avg RUU occupant latency (cycle's)
ruu_full                     0.9655 # fraction of time (cycle's) RUU was full
LSQ_count                8046412812 # cumulative LSQ occupancy
LSQ_fcount                984996409 # cumulative LSQ full count
lsq_occupancy                7.7441 # avg LSQ occupancy (insn's)
lsq_rate                     0.1075 # avg LSQ dispatch rate (insn/cycle)
lsq_latency                 72.0491 # avg LSQ occupant latency (cycle's)
lsq_full                     0.9480 # fraction of time (cycle's) LSQ was full
sim_slip                24456507413 # total number of slip cycles
avg_sim_slip               244.5651 # the average slip between issue and retirement
bpred_2lev.lookups         23441499 # total number of bpred lookups
bpred_2lev.updates         20651018 # total number of updates
bpred_2lev.addr_hits       18600181 # total number of address-predicted hits
bpred_2lev.dir_hits        18637002 # total number of direction-predicted hits (includes addr-hits)
bpred_2lev.misses           2014016 # total number of misses
bpred_2lev.jr_hits          1108132 # total number of address-predicted hits for JR's
bpred_2lev.jr_seen          1144770 # total number of JR's seen
bpred_2lev.jr_non_ras_hits.PP         3060 # total number of address-predicted hits for non-RAS JR's
bpred_2lev.jr_non_ras_seen.PP         3065 # total number of non-RAS JR's seen
bpred_2lev.bpred_addr_rate    0.9007 # branch address-prediction rate (i.e., addr-hits/updates)
bpred_2lev.bpred_dir_rate    0.9025 # branch direction-prediction rate (i.e., all-hits/updates)
bpred_2lev.bpred_jr_rate    0.9680 # JR address-prediction rate (i.e., JR addr-hits/JRs seen)
bpred_2lev.bpred_jr_non_ras_rate.PP    0.9984 # non-RAS JR addr-pred rate (ie, non-RAS JR hits/JRs seen)
bpred_2lev.retstack_pushes      1465975 # total number of address pushed onto ret-addr stack
bpred_2lev.retstack_pops      1279300 # total number of address popped off of ret-addr stack
bpred_2lev.used_ras.PP      1141705 # total number of RAS predictions used
bpred_2lev.ras_hits.PP      1105072 # total number of RAS hits
bpred_2lev.ras_rate.PP    0.9679 # RAS prediction rate (i.e., RAS hits/used RAS)
il1.accesses              115854392 # total number of accesses
il1.hits                  115229443 # total number of hits
il1.misses                   624949 # total number of misses
il1.replacements             624618 # total number of replacements
il1.writebacks                    0 # total number of writebacks
il1.invalidations                 0 # total number of invalidations
il1.miss_rate                0.0054 # miss rate (i.e., misses/ref)
il1.repl_rate                0.0054 # replacement rate (i.e., repls/ref)
il1.wb_rate                  0.0000 # writeback rate (i.e., wrbks/ref)
il1.inv_rate                 0.0000 # invalidation rate (i.e., invs/ref)
dl1.accesses               27807149 # total number of accesses
dl1.hits                   24449862 # total number of hits
dl1.misses                  3357287 # total number of misses
dl1.replacements            3356775 # total number of replacements
dl1.writebacks                43909 # total number of writebacks
dl1.invalidations                 0 # total number of invalidations
dl1.miss_rate                0.1207 # miss rate (i.e., misses/ref)
dl1.repl_rate                0.1207 # replacement rate (i.e., repls/ref)
dl1.wb_rate                  0.0016 # writeback rate (i.e., wrbks/ref)
dl1.inv_rate                 0.0000 # invalidation rate (i.e., invs/ref)
ul2.accesses                4026145 # total number of accesses
ul2.hits                     684534 # total number of hits
ul2.misses                  3341611 # total number of misses
ul2.replacements            3338237 # total number of replacements
ul2.writebacks                27505 # total number of writebacks
ul2.invalidations                 0 # total number of invalidations
ul2.miss_rate                0.8300 # miss rate (i.e., misses/ref)
ul2.repl_rate                0.8291 # replacement rate (i.e., repls/ref)
ul2.wb_rate                  0.0068 # writeback rate (i.e., wrbks/ref)
ul2.inv_rate                 0.0000 # invalidation rate (i.e., invs/ref)
itlb.accesses             115854392 # total number of accesses
itlb.hits                 115854370 # total number of hits
itlb.misses                      22 # total number of misses
itlb.replacements                 0 # total number of replacements
itlb.writebacks                   0 # total number of writebacks
itlb.invalidations                0 # total number of invalidations
itlb.miss_rate               0.0000 # miss rate (i.e., misses/ref)
itlb.repl_rate               0.0000 # replacement rate (i.e., repls/ref)
itlb.wb_rate                 0.0000 # writeback rate (i.e., wrbks/ref)
itlb.inv_rate                0.0000 # invalidation rate (i.e., invs/ref)
dtlb.accesses              31249692 # total number of accesses
dtlb.hits                  29180709 # total number of hits
dtlb.misses                 2068983 # total number of misses
dtlb.replacements           2068855 # total number of replacements
dtlb.writebacks                   0 # total number of writebacks
dtlb.invalidations                0 # total number of invalidations
dtlb.miss_rate               0.0662 # miss rate (i.e., misses/ref)
dtlb.repl_rate               0.0662 # replacement rate (i.e., repls/ref)
dtlb.wb_rate                 0.0000 # writeback rate (i.e., wrbks/ref)
dtlb.inv_rate                0.0000 # invalidation rate (i.e., invs/ref)
sim_invalid_addrs                 0 # total non-speculative bogus addresses seen (debug var)
ld_text_base           0x0120000000 # program text (code) segment base
ld_text_size                 368640 # program text (code) size in bytes
ld_data_base           0x0140000000 # program initialized data segment base
ld_data_size                  83584 # program init'ed `.data' and uninit'ed `.bss' size in bytes
ld_stack_base          0x011ff9b000 # program stack segment base (highest address in stack)
ld_stack_size                 16384 # program initial stack size
ld_prog_entry          0x0120013040 # program entry point (initial PC)
ld_environ_base        0x011ff97000 # program environment base address address
ld_target_big_endian              0 # target executable endian-ness, non-zero if big endian
mem.page_count                 1809 # total number of pages allocated
mem.page_mem                 14472k # total size of memory pages allocated
mem.ptab_misses              257721 # total first level page table misses
mem.ptab_accesses        1164810618 # total page table accesses
mem.ptab_miss_rate           0.0002 # first level page table miss rate

sim-outorder: SimpleScalar/Alpha Tool Set version 3.0 of August, 2003.
Copyright (c) 1994-2003 by Todd M. Austin, Ph.D. and SimpleScalar, LLC.
All Rights Reserved. This version of SimpleScalar is licensed for academic
non-commercial use.  No portion of this work may be used by any commercial
entity, or for any commercial purpose, without the prior written permission
of SimpleScalar, LLC (info@simplescalar.com).

warning: section `.comment' ignored...
sim: command line: sim-outorder -fastfwd 100000000 -max:inst 100000000 -bpred 2lev -bpred:2lev 1 512 9 1 -mem:width 32 -mem:lat 300 2 ../../exe/ammp.exe 

sim: simulation started @ Fri Oct 25 20:24:10 2024, options follow:

sim-outorder: This simulator implements a very detailed out-of-order issue
superscalar processor with a two-level memory system and speculative
execution support.  This simulator is a performance simulator, tracking the
latency of all pipeline operations.

# -config                     # load configuration from a file
# -dumpconfig                 # dump configuration to a file
# -h                    false # print help message    
# -v                    false # verbose operation     
# -d                    false # enable debug message  
# -i                    false # start in Dlite debugger
-seed                       1 # random number generator seed (0 for timer seed)
# -q                    false # initialize and terminate immediately
# -chkpt               <null> # restore EIO trace execution from <fname>
# -redir:sim           <null> # redirect simulator output to file (non-interactive only)
# -redir:prog          <null> # redirect simulated program output to file
-nice                       0 # simulator scheduling priority
-max:inst           100000000 # maximum number of inst's to execute
-fastfwd            100000000 # number of insts skipped before timing starts
# -ptrace              <null> # generate pipetrace, i.e., <fname|stdout|stderr> <range>
-fetch:ifqsize              4 # instruction fetch queue size (in insts)
-fetch:mplat                3 # extra branch mis-prediction latency
-fetch:speed                1 # speed of front-end of machine relative to execution core
-bpred                   2lev # branch predictor type {nottaken|taken|perfect|bimod|2lev|comb}
-bpred:bimod     2048 # bimodal predictor config (<table size>)
-bpred:2lev      1 512 9 1 # 2-level predictor config (<l1size> <l2size> <hist_size> <xor>)
-bpred:comb      1024 # combining predictor config (<meta_table_size>)
-bpred:ras                  8 # return address stack size (0 for no return stack)
-bpred:btb       512 4 # BTB config (<num_sets> <associativity>)
# -bpred:spec_update       <null> # speculative predictors update in {ID|WB} (default non-spec)
-decode:width               4 # instruction decode B/W (insts/cycle)
-issue:width                4 # instruction issue B/W (insts/cycle)
-issue:inorder          false # run pipeline with in-order issue
-issue:wrongpath         true # issue instructions down wrong execution paths
-commit:width               4 # instruction commit B/W (insts/cycle)
-ruu:size                  16 # register update unit (RUU) size
-lsq:size                   8 # load/store queue (LSQ) size
-cache:dl1       dl1:128:32:4:l # l1 data cache config, i.e., {<config>|none}
-cache:dl1lat               1 # l1 data cache hit latency (in cycles)
-cache:dl2       ul2:1024:64:4:l # l2 data cache config, i.e., {<config>|none}
-cache:dl2lat               6 # l2 data cache hit latency (in cycles)
-cache:il1       il1:512:32:1:l # l1 inst cache config, i.e., {<config>|dl1|dl2|none}
-cache:il1lat               1 # l1 instruction cache hit latency (in cycles)
-cache:il2                dl2 # l2 instruction cache config, i.e., {<config>|dl2|none}
-cache:il2lat               6 # l2 instruction cache hit latency (in cycles)
-cache:flush            false # flush caches on system calls
-cache:icompress        false # convert 64-bit inst addresses to 32-bit inst equivalents
-mem:lat         300 2 # memory access latency (<first_chunk> <inter_chunk>)
-mem:width                 32 # memory access bus width (in bytes)
-tlb:itlb        itlb:16:4096:4:l # instruction TLB config, i.e., {<config>|none}
-tlb:dtlb        dtlb:32:4096:4:l # data TLB config, i.e., {<config>|none}
-tlb:lat                   30 # inst/data TLB miss latency (in cycles)
-res:ialu                   4 # total number of integer ALU's available
-res:imult                  1 # total number of integer multiplier/dividers available
-res:memport                2 # total number of memory system ports available (to CPU)
-res:fpalu                  4 # total number of floating point ALU's available
-res:fpmult                 1 # total number of floating point multiplier/dividers available
# -pcstat              <null> # profile stat(s) against text addr's (mult uses ok)
-bugcompat              false # operate in backward-compatible bugs mode (for testing only)

  Pipetrace range arguments are formatted as follows:

    {{@|#}<start>}:{{@|#|+}<end>}

  Both ends of the range are optional, if neither are specified, the entire
  execution is traced.  Ranges that start with a `@' designate an address
  range to be traced, those that start with an `#' designate a cycle count
  range.  All other range values represent an instruction count range.  The
  second argument, if specified with a `+', indicates a value relative
  to the first argument, e.g., 1000:+100 == 1000:1100.  Program symbols may
  be used in all contexts.

    Examples:   -ptrace FOO.trc #0:#1000
                -ptrace BAR.trc @2000:
                -ptrace BLAH.trc :1500
                -ptrace UXXE.trc :
                -ptrace FOOBAR.trc @main:+278

  Branch predictor configuration examples for 2-level predictor:
    Configurations:   N, M, W, X
      N   # entries in first level (# of shift register(s))
      W   width of shift register(s)
      M   # entries in 2nd level (# of counters, or other FSM)
      X   (yes-1/no-0) xor history and address for 2nd level index
    Sample predictors:
      GAg     : 1, W, 2^W, 0
      GAp     : 1, W, M (M > 2^W), 0
      PAg     : N, W, 2^W, 0
      PAp     : N, W, M (M == 2^(N+W)), 0
      gshare  : 1, W, 2^W, 1
  Predictor `comb' combines a bimodal and a 2-level predictor.

  The cache config parameter <config> has the following format:

    <name>:<nsets>:<bsize>:<assoc>:<repl>

    <name>   - name of the cache being defined
    <nsets>  - number of sets in the cache
    <bsize>  - block size of the cache
    <assoc>  - associativity of the cache
    <repl>   - block replacement strategy, 'l'-LRU, 'f'-FIFO, 'r'-random

    Examples:   -cache:dl1 dl1:4096:32:1:l
                -dtlb dtlb:128:4096:32:r

  Cache levels can be unified by pointing a level of the instruction cache
  hierarchy at the data cache hiearchy using the "dl1" and "dl2" cache
  configuration arguments.  Most sensible combinations are supported, e.g.,

    A unified l2 cache (il2 is pointed at dl2):
      -cache:il1 il1:128:64:1:l -cache:il2 dl2
      -cache:dl1 dl1:256:32:1:l -cache:dl2 ul2:1024:64:2:l

    Or, a fully unified cache hierarchy (il1 pointed at dl1):
      -cache:il1 dl1
      -cache:dl1 ul1:256:32:1:l -cache:dl2 ul2:1024:64:2:l



sim: ** fast forwarding 100000000 insts **
sim: ** starting performance simulation **

sim: ** simulation statistics **
sim_num_insn              100000001 # total number of instructions committed
sim_num_refs               30101334 # total number of loads and stores committed
sim_num_loads              23145477 # total number of loads committed
sim_num_stores         6955857.0000 # total number of stores committed
sim_num_branches           20651019 # total number of branches committed
sim_elapsed_time                101 # total simulation time in seconds
sim_inst_rate           990099.0198 # simulation speed (in insts/sec)
sim_total_insn            107476507 # total number of instructions executed
sim_total_refs             32265122 # total number of loads and stores executed
sim_total_loads            25053231 # total number of loads executed
sim_total_stores       7211891.0000 # total number of stores executed
sim_total_branches         22115005 # total number of branches executed
sim_cycle                1034874852 # total simulation time in cycles
sim_IPC                      0.0966 # instructions per cycle
sim_CPI                     10.3487 # cycles per instruction
sim_exec_BW                  0.1039 # total instructions (mis-spec + committed) per cycle
sim_IPB                      4.8424 # instruction per branch
IFQ_count                4088242097 # cumulative IFQ occupancy
IFQ_fcount               1017851324 # cumulative IFQ full count
ifq_occupancy                3.9505 # avg IFQ occupancy (insn's)
ifq_rate                     0.1039 # avg IFQ dispatch rate (insn/cycle)
ifq_latency                 38.0385 # avg IFQ occupant latency (cycle's)
ifq_full                     0.9836 # fraction of time (cycle's) IFQ was full
RUU_count               16344251983 # cumulative RUU occupancy
RUU_fcount               1004530273 # cumulative RUU full count
ruu_occupancy               15.7935 # avg RUU occupancy (insn's)
ruu_rate                     0.1039 # avg RUU dispatch rate (insn/cycle)
ruu_latency                152.0728 # avg RUU occupant latency (cycle's)
ruu_full                     0.9707 # fraction of time (cycle's) RUU was full
LSQ_count                8044930017 # cumulative LSQ occupancy
LSQ_fcount                984579005 # cumulative LSQ full count
lsq_occupancy                7.7738 # avg LSQ occupancy (insn's)
lsq_rate                     0.1039 # avg LSQ dispatch rate (insn/cycle)
lsq_latency                 74.8529 # avg LSQ occupant latency (cycle's)
lsq_full                     0.9514 # fraction of time (cycle's) LSQ was full
sim_slip                24458730508 # total number of slip cycles
avg_sim_slip               244.5873 # the average slip between issue and retirement
bpred_2lev.lookups         22561006 # total number of bpred lookups
bpred_2lev.updates         20651016 # total number of updates
bpred_2lev.addr_hits       19447183 # total number of address-predicted hits
bpred_2lev.dir_hits        19474371 # total number of direction-predicted hits (includes addr-hits)
bpred_2lev.misses           1176645 # total number of misses
bpred_2lev.jr_hits          1117767 # total number of address-predicted hits for JR's
bpred_2lev.jr_seen          1144770 # total number of JR's seen
bpred_2lev.jr_non_ras_hits.PP         3060 # total number of address-predicted hits for non-RAS JR's
bpred_2lev.jr_non_ras_seen.PP         3065 # total number of non-RAS JR's seen
bpred_2lev.bpred_addr_rate    0.9417 # branch address-prediction rate (i.e., addr-hits/updates)
bpred_2lev.bpred_dir_rate    0.9430 # branch direction-prediction rate (i.e., all-hits/updates)
bpred_2lev.bpred_jr_rate    0.9764 # JR address-prediction rate (i.e., JR addr-hits/JRs seen)
bpred_2lev.bpred_jr_non_ras_rate.PP    0.9984 # non-RAS JR addr-pred rate (ie, non-RAS JR hits/JRs seen)
bpred_2lev.retstack_pushes      1356462 # total number of address pushed onto ret-addr stack
bpred_2lev.retstack_pops      1227832 # total number of address popped off of ret-addr stack
bpred_2lev.used_ras.PP      1141705 # total number of RAS predictions used
bpred_2lev.ras_hits.PP      1114707 # total number of RAS hits
bpred_2lev.ras_rate.PP    0.9764 # RAS prediction rate (i.e., RAS hits/used RAS)
il1.accesses              110302835 # total number of accesses
il1.hits                  109692644 # total number of hits
il1.misses                   610191 # total number of misses
il1.replacements             609864 # total number of replacements
il1.writebacks                    0 # total number of writebacks
il1.invalidations                 0 # total number of invalidations
il1.miss_rate                0.0055 # miss rate (i.e., misses/ref)
il1.repl_rate                0.0055 # replacement rate (i.e., repls/ref)
il1.wb_rate                  0.0000 # writeback rate (i.e., wrbks/ref)
il1.inv_rate                 0.0000 # invalidation rate (i.e., invs/ref)
dl1.accesses               27536429 # total number of accesses
dl1.hits                   24179571 # total number of hits
dl1.misses                  3356858 # total number of misses
dl1.replacements            3356346 # total number of replacements
dl1.writebacks                43893 # total number of writebacks
dl1.invalidations                 0 # total number of invalidations
dl1.miss_rate                0.1219 # miss rate (i.e., misses/ref)
dl1.repl_rate                0.1219 # replacement rate (i.e., repls/ref)
dl1.wb_rate                  0.0016 # writeback rate (i.e., wrbks/ref)
dl1.inv_rate                 0.0000 # invalidation rate (i.e., invs/ref)
ul2.accesses                4010942 # total number of accesses
ul2.hits                     669084 # total number of hits
ul2.misses                  3341858 # total number of misses
ul2.replacements            3338486 # total number of replacements
ul2.writebacks                27486 # total number of writebacks
ul2.invalidations                 0 # total number of invalidations
ul2.miss_rate                0.8332 # miss rate (i.e., misses/ref)
ul2.repl_rate                0.8323 # replacement rate (i.e., repls/ref)
ul2.wb_rate                  0.0069 # writeback rate (i.e., wrbks/ref)
ul2.inv_rate                 0.0000 # invalidation rate (i.e., invs/ref)
itlb.accesses             110302835 # total number of accesses
itlb.hits                 110302814 # total number of hits
itlb.misses                      21 # total number of misses
itlb.replacements                 0 # total number of replacements
itlb.writebacks                   0 # total number of writebacks
itlb.invalidations                0 # total number of invalidations
itlb.miss_rate               0.0000 # miss rate (i.e., misses/ref)
itlb.repl_rate               0.0000 # replacement rate (i.e., repls/ref)
itlb.wb_rate                 0.0000 # writeback rate (i.e., wrbks/ref)
itlb.inv_rate                0.0000 # invalidation rate (i.e., invs/ref)
dtlb.accesses              30952120 # total number of accesses
dtlb.hits                  28883411 # total number of hits
dtlb.misses                 2068709 # total number of misses
dtlb.replacements           2068581 # total number of replacements
dtlb.writebacks                   0 # total number of writebacks
dtlb.invalidations                0 # total number of invalidations
dtlb.miss_rate               0.0668 # miss rate (i.e., misses/ref)
dtlb.repl_rate               0.0668 # replacement rate (i.e., repls/ref)
dtlb.wb_rate                 0.0000 # writeback rate (i.e., wrbks/ref)
dtlb.inv_rate                0.0000 # invalidation rate (i.e., invs/ref)
sim_invalid_addrs                 0 # total non-speculative bogus addresses seen (debug var)
ld_text_base           0x0120000000 # program text (code) segment base
ld_text_size                 368640 # program text (code) size in bytes
ld_data_base           0x0140000000 # program initialized data segment base
ld_data_size                  83584 # program init'ed `.data' and uninit'ed `.bss' size in bytes
ld_stack_base          0x011ff9b000 # program stack segment base (highest address in stack)
ld_stack_size                 16384 # program initial stack size
ld_prog_entry          0x0120013040 # program entry point (initial PC)
ld_environ_base        0x011ff97000 # program environment base address address
ld_target_big_endian              0 # target executable endian-ness, non-zero if big endian
mem.page_count                 1809 # total number of pages allocated
mem.page_mem                 14472k # total size of memory pages allocated
mem.ptab_misses              256455 # total first level page table misses
mem.ptab_accesses        1151626628 # total page table accesses
mem.ptab_miss_rate           0.0002 # first level page table miss rate

sim-outorder: SimpleScalar/Alpha Tool Set version 3.0 of August, 2003.
Copyright (c) 1994-2003 by Todd M. Austin, Ph.D. and SimpleScalar, LLC.
All Rights Reserved. This version of SimpleScalar is licensed for academic
non-commercial use.  No portion of this work may be used by any commercial
entity, or for any commercial purpose, without the prior written permission
of SimpleScalar, LLC (info@simplescalar.com).

warning: section `.comment' ignored...
sim: command line: sim-outorder -fastfwd 100000000 -max:inst 100000000 -bpred 2lev -bpred:2lev 1 2048 11 1 -mem:width 32 -mem:lat 300 2 ../../exe/ammp.exe 

sim: simulation started @ Fri Oct 25 20:25:52 2024, options follow:

sim-outorder: This simulator implements a very detailed out-of-order issue
superscalar processor with a two-level memory system and speculative
execution support.  This simulator is a performance simulator, tracking the
latency of all pipeline operations.

# -config                     # load configuration from a file
# -dumpconfig                 # dump configuration to a file
# -h                    false # print help message    
# -v                    false # verbose operation     
# -d                    false # enable debug message  
# -i                    false # start in Dlite debugger
-seed                       1 # random number generator seed (0 for timer seed)
# -q                    false # initialize and terminate immediately
# -chkpt               <null> # restore EIO trace execution from <fname>
# -redir:sim           <null> # redirect simulator output to file (non-interactive only)
# -redir:prog          <null> # redirect simulated program output to file
-nice                       0 # simulator scheduling priority
-max:inst           100000000 # maximum number of inst's to execute
-fastfwd            100000000 # number of insts skipped before timing starts
# -ptrace              <null> # generate pipetrace, i.e., <fname|stdout|stderr> <range>
-fetch:ifqsize              4 # instruction fetch queue size (in insts)
-fetch:mplat                3 # extra branch mis-prediction latency
-fetch:speed                1 # speed of front-end of machine relative to execution core
-bpred                   2lev # branch predictor type {nottaken|taken|perfect|bimod|2lev|comb}
-bpred:bimod     2048 # bimodal predictor config (<table size>)
-bpred:2lev      1 2048 11 1 # 2-level predictor config (<l1size> <l2size> <hist_size> <xor>)
-bpred:comb      1024 # combining predictor config (<meta_table_size>)
-bpred:ras                  8 # return address stack size (0 for no return stack)
-bpred:btb       512 4 # BTB config (<num_sets> <associativity>)
# -bpred:spec_update       <null> # speculative predictors update in {ID|WB} (default non-spec)
-decode:width               4 # instruction decode B/W (insts/cycle)
-issue:width                4 # instruction issue B/W (insts/cycle)
-issue:inorder          false # run pipeline with in-order issue
-issue:wrongpath         true # issue instructions down wrong execution paths
-commit:width               4 # instruction commit B/W (insts/cycle)
-ruu:size                  16 # register update unit (RUU) size
-lsq:size                   8 # load/store queue (LSQ) size
-cache:dl1       dl1:128:32:4:l # l1 data cache config, i.e., {<config>|none}
-cache:dl1lat               1 # l1 data cache hit latency (in cycles)
-cache:dl2       ul2:1024:64:4:l # l2 data cache config, i.e., {<config>|none}
-cache:dl2lat               6 # l2 data cache hit latency (in cycles)
-cache:il1       il1:512:32:1:l # l1 inst cache config, i.e., {<config>|dl1|dl2|none}
-cache:il1lat               1 # l1 instruction cache hit latency (in cycles)
-cache:il2                dl2 # l2 instruction cache config, i.e., {<config>|dl2|none}
-cache:il2lat               6 # l2 instruction cache hit latency (in cycles)
-cache:flush            false # flush caches on system calls
-cache:icompress        false # convert 64-bit inst addresses to 32-bit inst equivalents
-mem:lat         300 2 # memory access latency (<first_chunk> <inter_chunk>)
-mem:width                 32 # memory access bus width (in bytes)
-tlb:itlb        itlb:16:4096:4:l # instruction TLB config, i.e., {<config>|none}
-tlb:dtlb        dtlb:32:4096:4:l # data TLB config, i.e., {<config>|none}
-tlb:lat                   30 # inst/data TLB miss latency (in cycles)
-res:ialu                   4 # total number of integer ALU's available
-res:imult                  1 # total number of integer multiplier/dividers available
-res:memport                2 # total number of memory system ports available (to CPU)
-res:fpalu                  4 # total number of floating point ALU's available
-res:fpmult                 1 # total number of floating point multiplier/dividers available
# -pcstat              <null> # profile stat(s) against text addr's (mult uses ok)
-bugcompat              false # operate in backward-compatible bugs mode (for testing only)

  Pipetrace range arguments are formatted as follows:

    {{@|#}<start>}:{{@|#|+}<end>}

  Both ends of the range are optional, if neither are specified, the entire
  execution is traced.  Ranges that start with a `@' designate an address
  range to be traced, those that start with an `#' designate a cycle count
  range.  All other range values represent an instruction count range.  The
  second argument, if specified with a `+', indicates a value relative
  to the first argument, e.g., 1000:+100 == 1000:1100.  Program symbols may
  be used in all contexts.

    Examples:   -ptrace FOO.trc #0:#1000
                -ptrace BAR.trc @2000:
                -ptrace BLAH.trc :1500
                -ptrace UXXE.trc :
                -ptrace FOOBAR.trc @main:+278

  Branch predictor configuration examples for 2-level predictor:
    Configurations:   N, M, W, X
      N   # entries in first level (# of shift register(s))
      W   width of shift register(s)
      M   # entries in 2nd level (# of counters, or other FSM)
      X   (yes-1/no-0) xor history and address for 2nd level index
    Sample predictors:
      GAg     : 1, W, 2^W, 0
      GAp     : 1, W, M (M > 2^W), 0
      PAg     : N, W, 2^W, 0
      PAp     : N, W, M (M == 2^(N+W)), 0
      gshare  : 1, W, 2^W, 1
  Predictor `comb' combines a bimodal and a 2-level predictor.

  The cache config parameter <config> has the following format:

    <name>:<nsets>:<bsize>:<assoc>:<repl>

    <name>   - name of the cache being defined
    <nsets>  - number of sets in the cache
    <bsize>  - block size of the cache
    <assoc>  - associativity of the cache
    <repl>   - block replacement strategy, 'l'-LRU, 'f'-FIFO, 'r'-random

    Examples:   -cache:dl1 dl1:4096:32:1:l
                -dtlb dtlb:128:4096:32:r

  Cache levels can be unified by pointing a level of the instruction cache
  hierarchy at the data cache hiearchy using the "dl1" and "dl2" cache
  configuration arguments.  Most sensible combinations are supported, e.g.,

    A unified l2 cache (il2 is pointed at dl2):
      -cache:il1 il1:128:64:1:l -cache:il2 dl2
      -cache:dl1 dl1:256:32:1:l -cache:dl2 ul2:1024:64:2:l

    Or, a fully unified cache hierarchy (il1 pointed at dl1):
      -cache:il1 dl1
      -cache:dl1 ul1:256:32:1:l -cache:dl2 ul2:1024:64:2:l



sim: ** fast forwarding 100000000 insts **
sim: ** starting performance simulation **

sim: ** simulation statistics **
sim_num_insn              100000002 # total number of instructions committed
sim_num_refs               30101335 # total number of loads and stores committed
sim_num_loads              23145477 # total number of loads committed
sim_num_stores         6955858.0000 # total number of stores committed
sim_num_branches           20651019 # total number of branches committed
sim_elapsed_time                100 # total simulation time in seconds
sim_inst_rate          1000000.0200 # simulation speed (in insts/sec)
sim_total_insn            104353516 # total number of instructions executed
sim_total_refs             31218043 # total number of loads and stores executed
sim_total_loads            24106819 # total number of loads executed
sim_total_stores       7111224.0000 # total number of stores executed
sim_total_branches         21532656 # total number of branches executed
sim_cycle                1031130766 # total simulation time in cycles
sim_IPC                      0.0970 # instructions per cycle
sim_CPI                     10.3113 # cycles per instruction
sim_exec_BW                  0.1012 # total instructions (mis-spec + committed) per cycle
sim_IPB                      4.8424 # instruction per branch
IFQ_count                4085473533 # cumulative IFQ occupancy
IFQ_fcount               1017143727 # cumulative IFQ full count
ifq_occupancy                3.9621 # avg IFQ occupancy (insn's)
ifq_rate                     0.1012 # avg IFQ dispatch rate (insn/cycle)
ifq_latency                 39.1503 # avg IFQ occupant latency (cycle's)
ifq_full                     0.9864 # fraction of time (cycle's) IFQ was full
RUU_count               16339947451 # cumulative RUU occupancy
RUU_fcount               1005150425 # cumulative RUU full count
ruu_occupancy               15.8466 # avg RUU occupancy (insn's)
ruu_rate                     0.1012 # avg RUU dispatch rate (insn/cycle)
ruu_latency                156.5826 # avg RUU occupant latency (cycle's)
ruu_full                     0.9748 # fraction of time (cycle's) RUU was full
LSQ_count                8043742788 # cumulative LSQ occupancy
LSQ_fcount                985863460 # cumulative LSQ full count
lsq_occupancy                7.8009 # avg LSQ occupancy (insn's)
lsq_rate                     0.1012 # avg LSQ dispatch rate (insn/cycle)
lsq_latency                 77.0817 # avg LSQ occupant latency (cycle's)
lsq_full                     0.9561 # fraction of time (cycle's) LSQ was full
sim_slip                24484754142 # total number of slip cycles
avg_sim_slip               244.8475 # the average slip between issue and retirement
bpred_2lev.lookups         21817530 # total number of bpred lookups
bpred_2lev.updates         20651016 # total number of updates
bpred_2lev.addr_hits       20108772 # total number of address-predicted hits
bpred_2lev.dir_hits        20137043 # total number of direction-predicted hits (includes addr-hits)
bpred_2lev.misses            513973 # total number of misses
bpred_2lev.jr_hits          1116676 # total number of address-predicted hits for JR's
bpred_2lev.jr_seen          1144770 # total number of JR's seen
bpred_2lev.jr_non_ras_hits.PP         3060 # total number of address-predicted hits for non-RAS JR's
bpred_2lev.jr_non_ras_seen.PP         3065 # total number of non-RAS JR's seen
bpred_2lev.bpred_addr_rate    0.9737 # branch address-prediction rate (i.e., addr-hits/updates)
bpred_2lev.bpred_dir_rate    0.9751 # branch direction-prediction rate (i.e., all-hits/updates)
bpred_2lev.bpred_jr_rate    0.9755 # JR address-prediction rate (i.e., JR addr-hits/JRs seen)
bpred_2lev.bpred_jr_non_ras_rate.PP    0.9984 # non-RAS JR addr-pred rate (ie, non-RAS JR hits/JRs seen)
bpred_2lev.retstack_pushes      1268141 # total number of address pushed onto ret-addr stack
bpred_2lev.retstack_pops      1186794 # total number of address popped off of ret-addr stack
bpred_2lev.used_ras.PP      1141705 # total number of RAS predictions used
bpred_2lev.ras_hits.PP      1113616 # total number of RAS hits
bpred_2lev.ras_rate.PP    0.9754 # RAS prediction rate (i.e., RAS hits/used RAS)
il1.accesses              106383819 # total number of accesses
il1.hits                  105804964 # total number of hits
il1.misses                   578855 # total number of misses
il1.replacements             578527 # total number of replacements
il1.writebacks                    0 # total number of writebacks
il1.invalidations                 0 # total number of invalidations
il1.miss_rate                0.0054 # miss rate (i.e., misses/ref)
il1.repl_rate                0.0054 # replacement rate (i.e., repls/ref)
il1.wb_rate                  0.0000 # writeback rate (i.e., wrbks/ref)
il1.inv_rate                 0.0000 # invalidation rate (i.e., invs/ref)
dl1.accesses               27103053 # total number of accesses
dl1.hits                   23745836 # total number of hits
dl1.misses                  3357217 # total number of misses
dl1.replacements            3356705 # total number of replacements
dl1.writebacks                43906 # total number of writebacks
dl1.invalidations                 0 # total number of invalidations
dl1.miss_rate                0.1239 # miss rate (i.e., misses/ref)
dl1.repl_rate                0.1238 # replacement rate (i.e., repls/ref)
dl1.wb_rate                  0.0016 # writeback rate (i.e., wrbks/ref)
dl1.inv_rate                 0.0000 # invalidation rate (i.e., invs/ref)
ul2.accesses                3979978 # total number of accesses
ul2.hits                     637929 # total number of hits
ul2.misses                  3342049 # total number of misses
ul2.replacements            3338675 # total number of replacements
ul2.writebacks                27471 # total number of writebacks
ul2.invalidations                 0 # total number of invalidations
ul2.miss_rate                0.8397 # miss rate (i.e., misses/ref)
ul2.repl_rate                0.8389 # replacement rate (i.e., repls/ref)
ul2.wb_rate                  0.0069 # writeback rate (i.e., wrbks/ref)
ul2.inv_rate                 0.0000 # invalidation rate (i.e., invs/ref)
itlb.accesses             106383819 # total number of accesses
itlb.hits                 106383798 # total number of hits
itlb.misses                      21 # total number of misses
itlb.replacements                 0 # total number of replacements
itlb.writebacks                   0 # total number of writebacks
itlb.invalidations                0 # total number of invalidations
itlb.miss_rate               0.0000 # miss rate (i.e., misses/ref)
itlb.repl_rate               0.0000 # replacement rate (i.e., repls/ref)
itlb.wb_rate                 0.0000 # writeback rate (i.e., wrbks/ref)
itlb.inv_rate                0.0000 # invalidation rate (i.e., invs/ref)
dtlb.accesses              30519409 # total number of accesses
dtlb.hits                  28450247 # total number of hits
dtlb.misses                 2069162 # total number of misses
dtlb.replacements           2069034 # total number of replacements
dtlb.writebacks                   0 # total number of writebacks
dtlb.invalidations                0 # total number of invalidations
dtlb.miss_rate               0.0678 # miss rate (i.e., misses/ref)
dtlb.repl_rate               0.0678 # replacement rate (i.e., repls/ref)
dtlb.wb_rate                 0.0000 # writeback rate (i.e., wrbks/ref)
dtlb.inv_rate                0.0000 # invalidation rate (i.e., invs/ref)
sim_invalid_addrs                 0 # total non-speculative bogus addresses seen (debug var)
ld_text_base           0x0120000000 # program text (code) segment base
ld_text_size                 368640 # program text (code) size in bytes
ld_data_base           0x0140000000 # program initialized data segment base
ld_data_size                  83584 # program init'ed `.data' and uninit'ed `.bss' size in bytes
ld_stack_base          0x011ff9b000 # program stack segment base (highest address in stack)
ld_stack_size                 16384 # program initial stack size
ld_prog_entry          0x0120013040 # program entry point (initial PC)
ld_environ_base        0x011ff97000 # program environment base address address
ld_target_big_endian              0 # target executable endian-ness, non-zero if big endian
mem.page_count                 1809 # total number of pages allocated
mem.page_mem                 14472k # total size of memory pages allocated
mem.ptab_misses              256457 # total first level page table misses
mem.ptab_accesses        1140252038 # total page table accesses
[...]
dl1.accesses               24189414 # total number of accesses
dl1.hits                   23817096 # total number of hits
dl1.misses                   372318 # total number of misses
dl1.replacements             371806 # total number of replacements
dl1.writebacks               118320 # total number of writebacks
dl1.invalidations                 0 # total number of invalidations
dl1.miss_rate                0.0154 # miss rate (i.e., misses/ref)
dl1.repl_rate                0.0154 # replacement rate (i.e., repls/ref)
dl1.wb_rate                  0.0049 # writeback rate (i.e., wrbks/ref)
dl1.inv_rate                 0.0000 # invalidation rate (i.e., invs/ref)
ul2.accesses                2100322 # total number of accesses
ul2.hits                    1981929 # total number of hits
ul2.misses                   118393 # total number of misses
ul2.replacements             114297 # total number of replacements
ul2.writebacks                47737 # total number of writebacks
ul2.invalidations                 0 # total number of invalidations
ul2.miss_rate                0.0564 # miss rate (i.e., misses/ref)
ul2.repl_rate                0.0544 # replacement rate (i.e., repls/ref)
ul2.wb_rate                  0.0227 # writeback rate (i.e., wrbks/ref)
ul2.inv_rate                 0.0000 # invalidation rate (i.e., invs/ref)
itlb.accesses             121770796 # total number of accesses
itlb.hits                 121770765 # total number of hits
itlb.misses                      31 # total number of misses
itlb.replacements                 0 # total number of replacements
itlb.writebacks                   0 # total number of writebacks
itlb.invalidations                0 # total number of invalidations
itlb.miss_rate               0.0000 # miss rate (i.e., misses/ref)
itlb.repl_rate               0.0000 # replacement rate (i.e., repls/ref)
itlb.wb_rate                 0.0000 # writeback rate (i.e., wrbks/ref)
itlb.inv_rate                0.0000 # invalidation rate (i.e., invs/ref)
dtlb.accesses              24313986 # total number of accesses
dtlb.hits                  24292174 # total number of hits
dtlb.misses                   21812 # total number of misses
dtlb.replacements             21684 # total number of replacements
dtlb.writebacks                   0 # total number of writebacks
dtlb.invalidations                0 # total number of invalidations
dtlb.miss_rate               0.0009 # miss rate (i.e., misses/ref)
dtlb.repl_rate               0.0009 # replacement rate (i.e., repls/ref)
dtlb.wb_rate                 0.0000 # writeback rate (i.e., wrbks/ref)
dtlb.inv_rate                0.0000 # invalidation rate (i.e., invs/ref)
sim_invalid_addrs                 0 # total non-speculative bogus addresses seen (debug var)
ld_text_base           0x0120000000 # program text (code) segment base
ld_text_size                 409600 # program text (code) size in bytes
ld_data_base           0x0140000000 # program initialized data segment base
ld_data_size                  83856 # program init'ed `.data' and uninit'ed `.bss' size in bytes
ld_stack_base          0x011ff9b000 # program stack segment base (highest address in stack)
ld_stack_size                 16384 # program initial stack size
ld_prog_entry          0x0120015520 # program entry point (initial PC)
ld_environ_base        0x011ff97000 # program environment base address address
ld_target_big_endian              0 # target executable endian-ness, non-zero if big endian
mem.page_count                  428 # total number of pages allocated
mem.page_mem                  3424k # total size of memory pages allocated
mem.ptab_misses              248898 # total first level page table misses
mem.ptab_accesses        1017913818 # total page table accesses
mem.ptab_miss_rate           0.0002 # first level page table miss rate

sim-outorder: SimpleScalar/Alpha Tool Set version 3.0 of August, 2003.
Copyright (c) 1994-2003 by Todd M. Austin, Ph.D. and SimpleScalar, LLC.
All Rights Reserved. This version of SimpleScalar is licensed for academic
non-commercial use.  No portion of this work may be used by any commercial
entity, or for any commercial purpose, without the prior written permission
of SimpleScalar, LLC (info@simplescalar.com).

warning: section `.comment' ignored...
sim: command line: sim-outorder -fastfwd 100000000 -max:inst 100000000 -bpred 2lev -bpred:2lev 1 2048 11 1 -mem:width 32 -mem:lat 300 2 ../../exe/vpr.exe net.in arch.in place.out dum.out -nodisp -place_only -init_t 5 -exit_t 0.005 -alpha_t 0.9412 -inner_num 2 

sim: simulation started @ Fri Oct 25 20:38:00 2024, options follow:

sim-outorder: This simulator implements a very detailed out-of-order issue
superscalar processor with a two-level memory system and speculative
execution support.  This simulator is a performance simulator, tracking the
latency of all pipeline operations.

# -config                     # load configuration from a file
# -dumpconfig                 # dump configuration to a file
# -h                    false # print help message    
# -v                    false # verbose operation     
# -d                    false # enable debug message  
# -i                    false # start in Dlite debugger
-seed                       1 # random number generator seed (0 for timer seed)
# -q                    false # initialize and terminate immediately
# -chkpt               <null> # restore EIO trace execution from <fname>
# -redir:sim           <null> # redirect simulator output to file (non-interactive only)
# -redir:prog          <null> # redirect simulated program output to file
-nice                       0 # simulator scheduling priority
-max:inst           100000000 # maximum number of inst's to execute
-fastfwd            100000000 # number of insts skipped before timing starts
# -ptrace              <null> # generate pipetrace, i.e., <fname|stdout|stderr> <range>
-fetch:ifqsize              4 # instruction fetch queue size (in insts)
-fetch:mplat                3 # extra branch mis-prediction latency
-fetch:speed                1 # speed of front-end of machine relative to execution core
-bpred                   2lev # branch predictor type {nottaken|taken|perfect|bimod|2lev|comb}
-bpred:bimod     2048 # bimodal predictor config (<table size>)
-bpred:2lev      1 2048 11 1 # 2-level predictor config (<l1size> <l2size> <hist_size> <xor>)
-bpred:comb      1024 # combining predictor config (<meta_table_size>)
-bpred:ras                  8 # return address stack size (0 for no return stack)
-bpred:btb       512 4 # BTB config (<num_sets> <associativity>)
# -bpred:spec_update       <null> # speculative predictors update in {ID|WB} (default non-spec)
-decode:width               4 # instruction decode B/W (insts/cycle)
-issue:width                4 # instruction issue B/W (insts/cycle)
-issue:inorder          false # run pipeline with in-order issue
-issue:wrongpath         true # issue instructions down wrong execution paths
-commit:width               4 # instruction commit B/W (insts/cycle)
-ruu:size                  16 # register update unit (RUU) size
-lsq:size                   8 # load/store queue (LSQ) size
-cache:dl1       dl1:128:32:4:l # l1 data cache config, i.e., {<config>|none}
-cache:dl1lat               1 # l1 data cache hit latency (in cycles)
-cache:dl2       ul2:1024:64:4:l # l2 data cache config, i.e., {<config>|none}
-cache:dl2lat               6 # l2 data cache hit latency (in cycles)
-cache:il1       il1:512:32:1:l # l1 inst cache config, i.e., {<config>|dl1|dl2|none}
-cache:il1lat               1 # l1 instruction cache hit latency (in cycles)
-cache:il2                dl2 # l2 instruction cache config, i.e., {<config>|dl2|none}
-cache:il2lat               6 # l2 instruction cache hit latency (in cycles)
-cache:flush            false # flush caches on system calls
-cache:icompress        false # convert 64-bit inst addresses to 32-bit inst equivalents
-mem:lat         300 2 # memory access latency (<first_chunk> <inter_chunk>)
-mem:width                 32 # memory access bus width (in bytes)
-tlb:itlb        itlb:16:4096:4:l # instruction TLB config, i.e., {<config>|none}
-tlb:dtlb        dtlb:32:4096:4:l # data TLB config, i.e., {<config>|none}
-tlb:lat                   30 # inst/data TLB miss latency (in cycles)
-res:ialu                   4 # total number of integer ALU's available
-res:imult                  1 # total number of integer multiplier/dividers available
-res:memport                2 # total number of memory system ports available (to CPU)
-res:fpalu                  4 # total number of floating point ALU's available
-res:fpmult                 1 # total number of floating point multiplier/dividers available
# -pcstat              <null> # profile stat(s) against text addr's (mult uses ok)
-bugcompat              false # operate in backward-compatible bugs mode (for testing only)

  Pipetrace range arguments are formatted as follows:

    {{@|#}<start>}:{{@|#|+}<end>}

  Both ends of the range are optional, if neither are specified, the entire
  execution is traced.  Ranges that start with a `@' designate an address
  range to be traced, those that start with an `#' designate a cycle count
  range.  All other range values represent an instruction count range.  The
  second argument, if specified with a `+', indicates a value relative
  to the first argument, e.g., 1000:+100 == 1000:1100.  Program symbols may
  be used in all contexts.

    Examples:   -ptrace FOO.trc #0:#1000
                -ptrace BAR.trc @2000:
                -ptrace BLAH.trc :1500
                -ptrace UXXE.trc :
                -ptrace FOOBAR.trc @main:+278

  Branch predictor configuration examples for 2-level predictor:
    Configurations:   N, M, W, X
      N   # entries in first level (# of shift register(s))
      W   width of shift register(s)
      M   # entries in 2nd level (# of counters, or other FSM)
      X   (yes-1/no-0) xor history and address for 2nd level index
    Sample predictors:
      GAg     : 1, W, 2^W, 0
      GAp     : 1, W, M (M > 2^W), 0
      PAg     : N, W, 2^W, 0
      PAp     : N, W, M (M == 2^(N+W)), 0
      gshare  : 1, W, 2^W, 1
  Predictor `comb' combines a bimodal and a 2-level predictor.

  The cache config parameter <config> has the following format:

    <name>:<nsets>:<bsize>:<assoc>:<repl>

    <name>   - name of the cache being defined
    <nsets>  - number of sets in the cache
    <bsize>  - block size of the cache
    <assoc>  - associativity of the cache
    <repl>   - block replacement strategy, 'l'-LRU, 'f'-FIFO, 'r'-random

    Examples:   -cache:dl1 dl1:4096:32:1:l
                -dtlb dtlb:128:4096:32:r

  Cache levels can be unified by pointing a level of the instruction cache
  hierarchy at the data cache hiearchy using the "dl1" and "dl2" cache
  configuration arguments.  Most sensible combinations are supported, e.g.,

    A unified l2 cache (il2 is pointed at dl2):
      -cache:il1 il1:128:64:1:l -cache:il2 dl2
      -cache:dl1 dl1:256:32:1:l -cache:dl2 ul2:1024:64:2:l

    Or, a fully unified cache hierarchy (il1 pointed at dl1):
      -cache:il1 dl1
      -cache:dl1 ul1:256:32:1:l -cache:dl2 ul2:1024:64:2:l



sim: ** fast forwarding 100000000 insts **
sim: ** starting performance simulation **

sim: ** simulation statistics **
sim_num_insn              100000002 # total number of instructions committed
sim_num_refs               23147907 # total number of loads and stores committed
sim_num_loads              18700740 # total number of loads committed
sim_num_stores         4447167.0000 # total number of stores committed
sim_num_branches           19702631 # total number of branches committed
sim_elapsed_time                 38 # total simulation time in seconds
sim_inst_rate          2631579.0000 # simulation speed (in insts/sec)
sim_total_insn            108396762 # total number of instructions executed
sim_total_refs             25022585 # total number of loads and stores executed
sim_total_loads            20429602 # total number of loads executed
sim_total_stores       4592983.0000 # total number of stores executed
sim_total_branches         21311766 # total number of branches executed
sim_cycle                  79204241 # total simulation time in cycles
sim_IPC                      1.2626 # instructions per cycle
sim_CPI                      0.7920 # cycles per instruction
sim_exec_BW                  1.3686 # total instructions (mis-spec + committed) per cycle
sim_IPB                      5.0755 # instruction per branch
IFQ_count                 250995597 # cumulative IFQ occupancy
IFQ_fcount                 57288748 # cumulative IFQ full count
ifq_occupancy                3.1690 # avg IFQ occupancy (insn's)
ifq_rate                     1.3686 # avg IFQ dispatch rate (insn/cycle)
ifq_latency                  2.3155 # avg IFQ occupant latency (cycle's)
ifq_full                     0.7233 # fraction of time (cycle's) IFQ was full
RUU_count                1001315246 # cumulative RUU occupancy
RUU_fcount                 44771687 # cumulative RUU full count
ruu_occupancy               12.6422 # avg RUU occupancy (insn's)
ruu_rate                     1.3686 # avg RUU dispatch rate (insn/cycle)
ruu_latency                  9.2375 # avg RUU occupant latency (cycle's)
ruu_full                     0.5653 # fraction of time (cycle's) RUU was full
LSQ_count                 263036404 # cumulative LSQ occupancy
LSQ_fcount                  4384356 # cumulative LSQ full count
lsq_occupancy                3.3210 # avg LSQ occupancy (insn's)
lsq_rate                     1.3686 # avg LSQ dispatch rate (insn/cycle)
lsq_latency                  2.4266 # avg LSQ occupant latency (cycle's)
lsq_full                     0.0554 # fraction of time (cycle's) LSQ was full
sim_slip                 1349451750 # total number of slip cycles
avg_sim_slip                13.4945 # the average slip between issue and retirement
bpred_2lev.lookups         21822322 # total number of bpred lookups
bpred_2lev.updates         19702630 # total number of updates
bpred_2lev.addr_hits       18657285 # total number of address-predicted hits
bpred_2lev.dir_hits        18721304 # total number of direction-predicted hits (includes addr-hits)
bpred_2lev.misses            981326 # total number of misses
bpred_2lev.jr_hits          1345485 # total number of address-predicted hits for JR's
bpred_2lev.jr_seen          1409179 # total number of JR's seen
bpred_2lev.jr_non_ras_hits.PP        13654 # total number of address-predicted hits for non-RAS JR's
bpred_2lev.jr_non_ras_seen.PP        13673 # total number of non-RAS JR's seen
bpred_2lev.bpred_addr_rate    0.9469 # branch address-prediction rate (i.e., addr-hits/updates)
bpred_2lev.bpred_dir_rate    0.9502 # branch direction-prediction rate (i.e., all-hits/updates)
bpred_2lev.bpred_jr_rate    0.9548 # JR address-prediction rate (i.e., JR addr-hits/JRs seen)
bpred_2lev.bpred_jr_non_ras_rate.PP    0.9986 # non-RAS JR addr-pred rate (ie, non-RAS JR hits/JRs seen)
bpred_2lev.retstack_pushes      1538658 # total number of address pushed onto ret-addr stack
bpred_2lev.retstack_pops      1629643 # total number of address popped off of ret-addr stack
bpred_2lev.used_ras.PP      1395506 # total number of RAS predictions used
bpred_2lev.ras_hits.PP      1331831 # total number of RAS hits
bpred_2lev.ras_rate.PP    0.9544 # RAS prediction rate (i.e., RAS hits/used RAS)
il1.accesses              112582687 # total number of accesses
il1.hits                  111016122 # total number of hits
il1.misses                  1566565 # total number of misses
il1.replacements            1566114 # total number of replacements
il1.writebacks                    0 # total number of writebacks
il1.invalidations                 0 # total number of invalidations
il1.miss_rate                0.0139 # miss rate (i.e., misses/ref)
il1.repl_rate                0.0139 # replacement rate (i.e., repls/ref)
il1.wb_rate                  0.0000 # writeback rate (i.e., wrbks/ref)
il1.inv_rate                 0.0000 # invalidation rate (i.e., invs/ref)
dl1.accesses               23723483 # total number of accesses
dl1.hits                   23352566 # total number of hits
dl1.misses                   370917 # total number of misses
dl1.replacements             370405 # total number of replacements
dl1.writebacks               118180 # total number of writebacks
dl1.invalidations                 0 # total number of invalidations
dl1.miss_rate                0.0156 # miss rate (i.e., misses/ref)
dl1.repl_rate                0.0156 # replacement rate (i.e., repls/ref)
dl1.wb_rate                  0.0050 # writeback rate (i.e., wrbks/ref)
dl1.inv_rate                 0.0000 # invalidation rate (i.e., invs/ref)
ul2.accesses                2055662 # total number of accesses
ul2.hits                    1937366 # total number of hits
ul2.misses                   118296 # total number of misses
ul2.replacements             114200 # total number of replacements
ul2.writebacks                47729 # total number of writebacks
ul2.invalidations                 0 # total number of invalidations
ul2.miss_rate                0.0575 # miss rate (i.e., misses/ref)
ul2.repl_rate                0.0556 # replacement rate (i.e., repls/ref)
ul2.wb_rate                  0.0232 # writeback rate (i.e., wrbks/ref)
ul2.inv_rate                 0.0000 # invalidation rate (i.e., invs/ref)
itlb.accesses             112582687 # total number of accesses
itlb.hits                 112582656 # total number of hits
itlb.misses                      31 # total number of misses
itlb.replacements                 0 # total number of replacements
itlb.writebacks                   0 # total number of writebacks
itlb.invalidations                0 # total number of invalidations
itlb.miss_rate               0.0000 # miss rate (i.e., misses/ref)
itlb.repl_rate               0.0000 # replacement rate (i.e., repls/ref)
itlb.wb_rate                 0.0000 # writeback rate (i.e., wrbks/ref)
itlb.inv_rate                0.0000 # invalidation rate (i.e., invs/ref)
dtlb.accesses              23860447 # total number of accesses
dtlb.hits                  23838838 # total number of hits
dtlb.misses                   21609 # total number of misses
dtlb.replacements             21481 # total number of replacements
dtlb.writebacks                   0 # total number of writebacks
dtlb.invalidations                0 # total number of invalidations
dtlb.miss_rate               0.0009 # miss rate (i.e., misses/ref)
dtlb.repl_rate               0.0009 # replacement rate (i.e., repls/ref)
dtlb.wb_rate                 0.0000 # writeback rate (i.e., wrbks/ref)
dtlb.inv_rate                0.0000 # invalidation rate (i.e., invs/ref)
sim_invalid_addrs                 0 # total non-speculative bogus addresses seen (debug var)
ld_text_base           0x0120000000 # program text (code) segment base
ld_text_size                 409600 # program text (code) size in bytes
ld_data_base           0x0140000000 # program initialized data segment base
ld_data_size                  83856 # program init'ed `.data' and uninit'ed `.bss' size in bytes
ld_stack_base          0x011ff9b000 # program stack segment base (highest address in stack)
ld_stack_size                 16384 # program initial stack size
ld_prog_entry          0x0120015520 # program entry point (initial PC)
ld_environ_base        0x011ff97000 # program environment base address address
ld_target_big_endian              0 # target executable endian-ness, non-zero if big endian
mem.page_count                  428 # total number of pages allocated
mem.page_mem                  3424k # total size of memory pages allocated
mem.ptab_misses              249012 # total first level page table misses
mem.ptab_accesses         993947156 # total page table accesses
mem.ptab_miss_rate           0.0003 # first level page table miss rate

