sim-outorder: SimpleScalar/Alpha Tool Set version 3.0 of August, 2003.
Copyright (c) 1994-2003 by Todd M. Austin, Ph.D. and SimpleScalar, LLC.
All Rights Reserved. This version of SimpleScalar is licensed for academic
non-commercial use.  No portion of this work may be used by any commercial
entity, or for any commercial purpose, without the prior written permission
of SimpleScalar, LLC (info@simplescalar.com).

warning: section `.comment' ignored...
sim: command line: sim-outorder -fastfwd 100000000 -max:inst 100000000 -bpred 2lev -bpred:2lev 4 4 2 0 -mem:width 32 -mem:lat 300 2 ../../exe/ammp.exe 

sim: simulation started @ Fri Oct 25 21:43:24 2024, options follow:

sim-outorder: This simulator implements a very detailed out-of-order issue
superscalar processor with a two-level memory system and speculative
execution support.  This simulator is a performance simulator, tracking the
latency of all pipeline operations.

# -config                     # load configuration from a file
# -dumpconfig                 # dump configuration to a file
# -h                    false # print help message    
# -v                    false # verbose operation     
# -d                    false # enable debug message  
# -i                    false # start in Dlite debugger
-seed                       1 # random number generator seed (0 for timer seed)
# -q                    false # initialize and terminate immediately
# -chkpt               <null> # restore EIO trace execution from <fname>
# -redir:sim           <null> # redirect simulator output to file (non-interactive only)
# -redir:prog          <null> # redirect simulated program output to file
-nice                       0 # simulator scheduling priority
-max:inst           100000000 # maximum number of inst's to execute
-fastfwd            100000000 # number of insts skipped before timing starts
# -ptrace              <null> # generate pipetrace, i.e., <fname|stdout|stderr> <range>
-fetch:ifqsize              4 # instruction fetch queue size (in insts)
-fetch:mplat                3 # extra branch mis-prediction latency
-fetch:speed                1 # speed of front-end of machine relative to execution core
-bpred                   2lev # branch predictor type {nottaken|taken|perfect|bimod|2lev|comb}
-bpred:bimod     2048 # bimodal predictor config (<table size>)
-bpred:2lev      4 4 2 0 # 2-level predictor config (<l1size> <l2size> <hist_size> <xor>)
-bpred:comb      1024 # combining predictor config (<meta_table_size>)
-bpred:ras                  8 # return address stack size (0 for no return stack)
-bpred:btb       512 4 # BTB config (<num_sets> <associativity>)
# -bpred:spec_update       <null> # speculative predictors update in {ID|WB} (default non-spec)
-decode:width               4 # instruction decode B/W (insts/cycle)
-issue:width                4 # instruction issue B/W (insts/cycle)
-issue:inorder          false # run pipeline with in-order issue
-issue:wrongpath         true # issue instructions down wrong execution paths
-commit:width               4 # instruction commit B/W (insts/cycle)
-ruu:size                  16 # register update unit (RUU) size
-lsq:size                   8 # load/store queue (LSQ) size
-cache:dl1       dl1:128:32:4:l # l1 data cache config, i.e., {<config>|none}
-cache:dl1lat               1 # l1 data cache hit latency (in cycles)
-cache:dl2       ul2:1024:64:4:l # l2 data cache config, i.e., {<config>|none}
-cache:dl2lat               6 # l2 data cache hit latency (in cycles)
-cache:il1       il1:512:32:1:l # l1 inst cache config, i.e., {<config>|dl1|dl2|none}
-cache:il1lat               1 # l1 instruction cache hit latency (in cycles)
-cache:il2                dl2 # l2 instruction cache config, i.e., {<config>|dl2|none}
-cache:il2lat               6 # l2 instruction cache hit latency (in cycles)
-cache:flush            false # flush caches on system calls
-cache:icompress        false # convert 64-bit inst addresses to 32-bit inst equivalents
-mem:lat         300 2 # memory access latency (<first_chunk> <inter_chunk>)
-mem:width                 32 # memory access bus width (in bytes)
-tlb:itlb        itlb:16:4096:4:l # instruction TLB config, i.e., {<config>|none}
-tlb:dtlb        dtlb:32:4096:4:l # data TLB config, i.e., {<config>|none}
-tlb:lat                   30 # inst/data TLB miss latency (in cycles)
-res:ialu                   4 # total number of integer ALU's available
-res:imult                  1 # total number of integer multiplier/dividers available
-res:memport                2 # total number of memory system ports available (to CPU)
-res:fpalu                  4 # total number of floating point ALU's available
-res:fpmult                 1 # total number of floating point multiplier/dividers available
# -pcstat              <null> # profile stat(s) against text addr's (mult uses ok)
-bugcompat              false # operate in backward-compatible bugs mode (for testing only)

  Pipetrace range arguments are formatted as follows:

    {{@|#}<start>}:{{@|#|+}<end>}

  Both ends of the range are optional, if neither are specified, the entire
  execution is traced.  Ranges that start with a `@' designate an address
  range to be traced, those that start with an `#' designate a cycle count
  range.  All other range values represent an instruction count range.  The
  second argument, if specified with a `+', indicates a value relative
  to the first argument, e.g., 1000:+100 == 1000:1100.  Program symbols may
  be used in all contexts.

    Examples:   -ptrace FOO.trc #0:#1000
                -ptrace BAR.trc @2000:
                -ptrace BLAH.trc :1500
                -ptrace UXXE.trc :
                -ptrace FOOBAR.trc @main:+278

  Branch predictor configuration examples for 2-level predictor:
    Configurations:   N, M, W, X
      N   # entries in first level (# of shift register(s))
      W   width of shift register(s)
      M   # entries in 2nd level (# of counters, or other FSM)
      X   (yes-1/no-0) xor history and address for 2nd level index
    Sample predictors:
      GAg     : 1, W, 2^W, 0
      GAp     : 1, W, M (M > 2^W), 0
      PAg     : N, W, 2^W, 0
      PAp     : N, W, M (M == 2^(N+W)), 0
      gshare  : 1, W, 2^W, 1
  Predictor `comb' combines a bimodal and a 2-level predictor.

  The cache config parameter <config> has the following format:

    <name>:<nsets>:<bsize>:<assoc>:<repl>

    <name>   - name of the cache being defined
    <nsets>  - number of sets in the cache
    <bsize>  - block size of the cache
    <assoc>  - associativity of the cache
    <repl>   - block replacement strategy, 'l'-LRU, 'f'-FIFO, 'r'-random

    Examples:   -cache:dl1 dl1:4096:32:1:l
                -dtlb dtlb:128:4096:32:r

  Cache levels can be unified by pointing a level of the instruction cache
  hierarchy at the data cache hiearchy using the "dl1" and "dl2" cache
  configuration arguments.  Most sensible combinations are supported, e.g.,

    A unified l2 cache (il2 is pointed at dl2):
      -cache:il1 il1:128:64:1:l -cache:il2 dl2
      -cache:dl1 dl1:256:32:1:l -cache:dl2 ul2:1024:64:2:l

    Or, a fully unified cache hierarchy (il1 pointed at dl1):
      -cache:il1 dl1
      -cache:dl1 ul1:256:32:1:l -cache:dl2 ul2:1024:64:2:l



sim: ** fast forwarding 100000000 insts **
sim: ** starting performance simulation **

sim: ** simulation statistics **
sim_num_insn              100000001 # total number of instructions committed
sim_num_refs               30101334 # total number of loads and stores committed
sim_num_loads              23145477 # total number of loads committed
sim_num_stores         6955857.0000 # total number of stores committed
sim_num_branches           20651019 # total number of branches committed
sim_elapsed_time                 64 # total simulation time in seconds
sim_inst_rate          1562500.0156 # simulation speed (in insts/sec)
sim_total_insn            116564312 # total number of instructions executed
sim_total_refs             35323866 # total number of loads and stores executed
sim_total_loads            26873011 # total number of loads executed
sim_total_stores       8450855.0000 # total number of stores executed
sim_total_branches         23303015 # total number of branches executed
sim_cycle                1049883859 # total simulation time in cycles
sim_IPC                      0.0952 # instructions per cycle
sim_CPI                     10.4988 # cycles per instruction
sim_exec_BW                  0.1110 # total instructions (mis-spec + committed) per cycle
sim_IPB                      4.8424 # instruction per branch
IFQ_count                4121266991 # cumulative IFQ occupancy
IFQ_fcount               1025373094 # cumulative IFQ full count
ifq_occupancy                3.9255 # avg IFQ occupancy (insn's)
ifq_rate                     0.1110 # avg IFQ dispatch rate (insn/cycle)
ifq_latency                 35.3562 # avg IFQ occupant latency (cycle's)
ifq_full                     0.9767 # fraction of time (cycle's) IFQ was full
RUU_count               16458207509 # cumulative RUU occupancy
RUU_fcount               1006411218 # cumulative RUU full count
ruu_occupancy               15.6762 # avg RUU occupancy (insn's)
ruu_rate                     0.1110 # avg RUU dispatch rate (insn/cycle)
ruu_latency                141.1942 # avg RUU occupant latency (cycle's)
ruu_full                     0.9586 # fraction of time (cycle's) RUU was full
LSQ_count                8084652882 # cumulative LSQ occupancy
LSQ_fcount                984908209 # cumulative LSQ full count
lsq_occupancy                7.7005 # avg LSQ occupancy (insn's)
lsq_rate                     0.1110 # avg LSQ dispatch rate (insn/cycle)
lsq_latency                 69.3579 # avg LSQ occupant latency (cycle's)
lsq_full                     0.9381 # fraction of time (cycle's) LSQ was full
sim_slip                24431847599 # total number of slip cycles
avg_sim_slip               244.3185 # the average slip between issue and retirement
bpred_2lev.lookups         24084991 # total number of bpred lookups
bpred_2lev.updates         20651018 # total number of updates
bpred_2lev.addr_hits       17638793 # total number of address-predicted hits
bpred_2lev.dir_hits        17669765 # total number of direction-predicted hits (includes addr-hits)
bpred_2lev.misses           2981253 # total number of misses
bpred_2lev.jr_hits          1113979 # total number of address-predicted hits for JR's
bpred_2lev.jr_seen          1144770 # total number of JR's seen
bpred_2lev.jr_non_ras_hits.PP         3060 # total number of address-predicted hits for non-RAS JR's
bpred_2lev.jr_non_ras_seen.PP         3065 # total number of non-RAS JR's seen
bpred_2lev.bpred_addr_rate    0.8541 # branch address-prediction rate (i.e., addr-hits/updates)
bpred_2lev.bpred_dir_rate    0.8556 # branch direction-prediction rate (i.e., all-hits/updates)
bpred_2lev.bpred_jr_rate    0.9731 # JR address-prediction rate (i.e., JR addr-hits/JRs seen)
bpred_2lev.bpred_jr_non_ras_rate.PP    0.9984 # non-RAS JR addr-pred rate (ie, non-RAS JR hits/JRs seen)
bpred_2lev.retstack_pushes      1659267 # total number of address pushed onto ret-addr stack
bpred_2lev.retstack_pops      1382265 # total number of address popped off of ret-addr stack
bpred_2lev.used_ras.PP      1141705 # total number of RAS predictions used
bpred_2lev.ras_hits.PP      1110919 # total number of RAS hits
bpred_2lev.ras_rate.PP    0.9730 # RAS prediction rate (i.e., RAS hits/used RAS)
il1.accesses              122666185 # total number of accesses
il1.hits                  122035968 # total number of hits
il1.misses                   630217 # total number of misses
il1.replacements             629893 # total number of replacements
il1.writebacks                    0 # total number of writebacks
il1.invalidations                 0 # total number of invalidations
il1.miss_rate                0.0051 # miss rate (i.e., misses/ref)
il1.repl_rate                0.0051 # replacement rate (i.e., repls/ref)
il1.wb_rate                  0.0000 # writeback rate (i.e., wrbks/ref)
il1.inv_rate                 0.0000 # invalidation rate (i.e., invs/ref)
dl1.accesses               28236414 # total number of accesses
dl1.hits                   24878728 # total number of hits
dl1.misses                  3357686 # total number of misses
dl1.replacements            3357174 # total number of replacements
dl1.writebacks                43876 # total number of writebacks
dl1.invalidations                 0 # total number of invalidations
dl1.miss_rate                0.1189 # miss rate (i.e., misses/ref)
dl1.repl_rate                0.1189 # replacement rate (i.e., repls/ref)
dl1.wb_rate                  0.0016 # writeback rate (i.e., wrbks/ref)
dl1.inv_rate                 0.0000 # invalidation rate (i.e., invs/ref)
ul2.accesses                4031779 # total number of accesses
ul2.hits                     689119 # total number of hits
ul2.misses                  3342660 # total number of misses
ul2.replacements            3339288 # total number of replacements
ul2.writebacks                27460 # total number of writebacks
ul2.invalidations                 0 # total number of invalidations
ul2.miss_rate                0.8291 # miss rate (i.e., misses/ref)
ul2.repl_rate                0.8282 # replacement rate (i.e., repls/ref)
ul2.wb_rate                  0.0068 # writeback rate (i.e., wrbks/ref)
ul2.inv_rate                 0.0000 # invalidation rate (i.e., invs/ref)
itlb.accesses             122666185 # total number of accesses
itlb.hits                 122666164 # total number of hits
itlb.misses                      21 # total number of misses
itlb.replacements                 0 # total number of replacements
itlb.writebacks                   0 # total number of writebacks
itlb.invalidations                0 # total number of invalidations
itlb.miss_rate               0.0000 # miss rate (i.e., misses/ref)
itlb.repl_rate               0.0000 # replacement rate (i.e., repls/ref)
itlb.wb_rate                 0.0000 # writeback rate (i.e., wrbks/ref)
itlb.inv_rate                0.0000 # invalidation rate (i.e., invs/ref)
dtlb.accesses              31633790 # total number of accesses
dtlb.hits                  29564992 # total number of hits
dtlb.misses                 2068798 # total number of misses
dtlb.replacements           2068670 # total number of replacements
dtlb.writebacks                   0 # total number of writebacks
dtlb.invalidations                0 # total number of invalidations
dtlb.miss_rate               0.0654 # miss rate (i.e., misses/ref)
dtlb.repl_rate               0.0654 # replacement rate (i.e., repls/ref)
dtlb.wb_rate                 0.0000 # writeback rate (i.e., wrbks/ref)
dtlb.inv_rate                0.0000 # invalidation rate (i.e., invs/ref)
sim_invalid_addrs                 0 # total non-speculative bogus addresses seen (debug var)
ld_text_base           0x0120000000 # program text (code) segment base
ld_text_size                 368640 # program text (code) size in bytes
ld_data_base           0x0140000000 # program initialized data segment base
ld_data_size                  83584 # program init'ed `.data' and uninit'ed `.bss' size in bytes
ld_stack_base          0x011ff9b000 # program stack segment base (highest address in stack)
ld_stack_size                 16384 # program initial stack size
ld_prog_entry          0x0120013040 # program entry point (initial PC)
ld_environ_base        0x011ff97000 # program environment base address address
ld_target_big_endian              0 # target executable endian-ness, non-zero if big endian
mem.page_count                 1809 # total number of pages allocated
mem.page_mem                 14472k # total size of memory pages allocated
mem.ptab_misses              259416 # total first level page table misses
mem.ptab_accesses        1182659588 # total page table accesses
mem.ptab_miss_rate           0.0002 # first level page table miss rate

sim-outorder: SimpleScalar/Alpha Tool Set version 3.0 of August, 2003.
Copyright (c) 1994-2003 by Todd M. Austin, Ph.D. and SimpleScalar, LLC.
All Rights Reserved. This version of SimpleScalar is licensed for academic
non-commercial use.  No portion of this work may be used by any commercial
entity, or for any commercial purpose, without the prior written permission
of SimpleScalar, LLC (info@simplescalar.com).

warning: section `.comment' ignored...
sim: command line: sim-outorder -fastfwd 100000000 -max:inst 100000000 -bpred 2lev -bpred:2lev 8 16 4 0 -mem:width 32 -mem:lat 300 2 ../../exe/ammp.exe 

sim: simulation started @ Fri Oct 25 21:44:28 2024, options follow:

sim-outorder: This simulator implements a very detailed out-of-order issue
superscalar processor with a two-level memory system and speculative
execution support.  This simulator is a performance simulator, tracking the
latency of all pipeline operations.

# -config                     # load configuration from a file
# -dumpconfig                 # dump configuration to a file
# -h                    false # print help message    
# -v                    false # verbose operation     
# -d                    false # enable debug message  
# -i                    false # start in Dlite debugger
-seed                       1 # random number generator seed (0 for timer seed)
# -q                    false # initialize and terminate immediately
# -chkpt               <null> # restore EIO trace execution from <fname>
# -redir:sim           <null> # redirect simulator output to file (non-interactive only)
# -redir:prog          <null> # redirect simulated program output to file
-nice                       0 # simulator scheduling priority
-max:inst           100000000 # maximum number of inst's to execute
-fastfwd            100000000 # number of insts skipped before timing starts
# -ptrace              <null> # generate pipetrace, i.e., <fname|stdout|stderr> <range>
-fetch:ifqsize              4 # instruction fetch queue size (in insts)
-fetch:mplat                3 # extra branch mis-prediction latency
-fetch:speed                1 # speed of front-end of machine relative to execution core
-bpred                   2lev # branch predictor type {nottaken|taken|perfect|bimod|2lev|comb}
-bpred:bimod     2048 # bimodal predictor config (<table size>)
-bpred:2lev      8 16 4 0 # 2-level predictor config (<l1size> <l2size> <hist_size> <xor>)
-bpred:comb      1024 # combining predictor config (<meta_table_size>)
-bpred:ras                  8 # return address stack size (0 for no return stack)
-bpred:btb       512 4 # BTB config (<num_sets> <associativity>)
# -bpred:spec_update       <null> # speculative predictors update in {ID|WB} (default non-spec)
-decode:width               4 # instruction decode B/W (insts/cycle)
-issue:width                4 # instruction issue B/W (insts/cycle)
-issue:inorder          false # run pipeline with in-order issue
-issue:wrongpath         true # issue instructions down wrong execution paths
-commit:width               4 # instruction commit B/W (insts/cycle)
-ruu:size                  16 # register update unit (RUU) size
-lsq:size                   8 # load/store queue (LSQ) size
-cache:dl1       dl1:128:32:4:l # l1 data cache config, i.e., {<config>|none}
-cache:dl1lat               1 # l1 data cache hit latency (in cycles)
-cache:dl2       ul2:1024:64:4:l # l2 data cache config, i.e., {<config>|none}
-cache:dl2lat               6 # l2 data cache hit latency (in cycles)
-cache:il1       il1:512:32:1:l # l1 inst cache config, i.e., {<config>|dl1|dl2|none}
-cache:il1lat               1 # l1 instruction cache hit latency (in cycles)
-cache:il2                dl2 # l2 instruction cache config, i.e., {<config>|dl2|none}
-cache:il2lat               6 # l2 instruction cache hit latency (in cycles)
-cache:flush            false # flush caches on system calls
-cache:icompress        false # convert 64-bit inst addresses to 32-bit inst equivalents
-mem:lat         300 2 # memory access latency (<first_chunk> <inter_chunk>)
-mem:width                 32 # memory access bus width (in bytes)
-tlb:itlb        itlb:16:4096:4:l # instruction TLB config, i.e., {<config>|none}
-tlb:dtlb        dtlb:32:4096:4:l # data TLB config, i.e., {<config>|none}
-tlb:lat                   30 # inst/data TLB miss latency (in cycles)
-res:ialu                   4 # total number of integer ALU's available
-res:imult                  1 # total number of integer multiplier/dividers available
-res:memport                2 # total number of memory system ports available (to CPU)
-res:fpalu                  4 # total number of floating point ALU's available
-res:fpmult                 1 # total number of floating point multiplier/dividers available
# -pcstat              <null> # profile stat(s) against text addr's (mult uses ok)
-bugcompat              false # operate in backward-compatible bugs mode (for testing only)

  Pipetrace range arguments are formatted as follows:

    {{@|#}<start>}:{{@|#|+}<end>}

  Both ends of the range are optional, if neither are specified, the entire
  execution is traced.  Ranges that start with a `@' designate an address
  range to be traced, those that start with an `#' designate a cycle count
  range.  All other range values represent an instruction count range.  The
  second argument, if specified with a `+', indicates a value relative
  to the first argument, e.g., 1000:+100 == 1000:1100.  Program symbols may
  be used in all contexts.

    Examples:   -ptrace FOO.trc #0:#1000
                -ptrace BAR.trc @2000:
                -ptrace BLAH.trc :1500
                -ptrace UXXE.trc :
                -ptrace FOOBAR.trc @main:+278

  Branch predictor configuration examples for 2-level predictor:
    Configurations:   N, M, W, X
      N   # entries in first level (# of shift register(s))
      W   width of shift register(s)
      M   # entries in 2nd level (# of counters, or other FSM)
      X   (yes-1/no-0) xor history and address for 2nd level index
    Sample predictors:
      GAg     : 1, W, 2^W, 0
      GAp     : 1, W, M (M > 2^W), 0
      PAg     : N, W, 2^W, 0
      PAp     : N, W, M (M == 2^(N+W)), 0
      gshare  : 1, W, 2^W, 1
  Predictor `comb' combines a bimodal and a 2-level predictor.

  The cache config parameter <config> has the following format:

    <name>:<nsets>:<bsize>:<assoc>:<repl>

    <name>   - name of the cache being defined
    <nsets>  - number of sets in the cache
    <bsize>  - block size of the cache
    <assoc>  - associativity of the cache
    <repl>   - block replacement strategy, 'l'-LRU, 'f'-FIFO, 'r'-random

    Examples:   -cache:dl1 dl1:4096:32:1:l
                -dtlb dtlb:128:4096:32:r

  Cache levels can be unified by pointing a level of the instruction cache
  hierarchy at the data cache hiearchy using the "dl1" and "dl2" cache
  configuration arguments.  Most sensible combinations are supported, e.g.,

    A unified l2 cache (il2 is pointed at dl2):
      -cache:il1 il1:128:64:1:l -cache:il2 dl2
      -cache:dl1 dl1:256:32:1:l -cache:dl2 ul2:1024:64:2:l

    Or, a fully unified cache hierarchy (il1 pointed at dl1):
      -cache:il1 dl1
      -cache:dl1 ul1:256:32:1:l -cache:dl2 ul2:1024:64:2:l



sim: ** fast forwarding 100000000 insts **
sim: ** starting performance simulation **

sim: ** simulation statistics **
sim_num_insn              100000001 # total number of instructions committed
sim_num_refs               30101334 # total number of loads and stores committed
sim_num_loads              23145477 # total number of loads committed
sim_num_stores         6955857.0000 # total number of stores committed
sim_num_branches           20651019 # total number of branches committed
sim_elapsed_time                 63 # total simulation time in seconds
sim_inst_rate          1587301.6032 # simulation speed (in insts/sec)
sim_total_insn            113602570 # total number of instructions executed
sim_total_refs             32860579 # total number of loads and stores executed
sim_total_loads            25548263 # total number of loads executed
sim_total_stores       7312316.0000 # total number of stores executed
sim_total_branches         23368140 # total number of branches executed
sim_cycle                1041598175 # total simulation time in cycles
sim_IPC                      0.0960 # instructions per cycle
sim_CPI                     10.4160 # cycles per instruction
sim_exec_BW                  0.1091 # total instructions (mis-spec + committed) per cycle
sim_IPB                      4.8424 # instruction per branch
IFQ_count                4089216672 # cumulative IFQ occupancy
IFQ_fcount               1017062666 # cumulative IFQ full count
ifq_occupancy                3.9259 # avg IFQ occupancy (insn's)
ifq_rate                     0.1091 # avg IFQ dispatch rate (insn/cycle)
ifq_latency                 35.9958 # avg IFQ occupant latency (cycle's)
ifq_full                     0.9764 # fraction of time (cycle's) IFQ was full
RUU_count               16342507478 # cumulative RUU occupancy
RUU_fcount                998412226 # cumulative RUU full count
ruu_occupancy               15.6898 # avg RUU occupancy (insn's)
ruu_rate                     0.1091 # avg RUU dispatch rate (insn/cycle)
ruu_latency                143.8568 # avg RUU occupant latency (cycle's)
ruu_full                     0.9585 # fraction of time (cycle's) RUU was full
LSQ_count                8042825794 # cumulative LSQ occupancy
LSQ_fcount                984458212 # cumulative LSQ full count
lsq_occupancy                7.7216 # avg LSQ occupancy (insn's)
lsq_rate                     0.1091 # avg LSQ dispatch rate (insn/cycle)
lsq_latency                 70.7979 # avg LSQ occupant latency (cycle's)
lsq_full                     0.9451 # fraction of time (cycle's) LSQ was full
sim_slip                24448785818 # total number of slip cycles
avg_sim_slip               244.4879 # the average slip between issue and retirement
bpred_2lev.lookups         24177094 # total number of bpred lookups
bpred_2lev.updates         20651018 # total number of updates
bpred_2lev.addr_hits       17757195 # total number of address-predicted hits
bpred_2lev.dir_hits        17795719 # total number of direction-predicted hits (includes addr-hits)
bpred_2lev.misses           2855299 # total number of misses
bpred_2lev.jr_hits          1106422 # total number of address-predicted hits for JR's
bpred_2lev.jr_seen          1144770 # total number of JR's seen
bpred_2lev.jr_non_ras_hits.PP         3060 # total number of address-predicted hits for non-RAS JR's
bpred_2lev.jr_non_ras_seen.PP         3065 # total number of non-RAS JR's seen
bpred_2lev.bpred_addr_rate    0.8599 # branch address-prediction rate (i.e., addr-hits/updates)
bpred_2lev.bpred_dir_rate    0.8617 # branch direction-prediction rate (i.e., all-hits/updates)
bpred_2lev.bpred_jr_rate    0.9665 # JR address-prediction rate (i.e., JR addr-hits/JRs seen)
bpred_2lev.bpred_jr_non_ras_rate.PP    0.9984 # non-RAS JR addr-pred rate (ie, non-RAS JR hits/JRs seen)
bpred_2lev.retstack_pushes      1387975 # total number of address pushed onto ret-addr stack
bpred_2lev.retstack_pops      1296453 # total number of address popped off of ret-addr stack
bpred_2lev.used_ras.PP      1141705 # total number of RAS predictions used
bpred_2lev.ras_hits.PP      1103362 # total number of RAS hits
bpred_2lev.ras_rate.PP    0.9664 # RAS prediction rate (i.e., RAS hits/used RAS)
il1.accesses              119265346 # total number of accesses
il1.hits                  118643122 # total number of hits
il1.misses                   622224 # total number of misses
il1.replacements             621896 # total number of replacements
il1.writebacks                    0 # total number of writebacks
il1.invalidations                 0 # total number of invalidations
il1.miss_rate                0.0052 # miss rate (i.e., misses/ref)
il1.repl_rate                0.0052 # replacement rate (i.e., repls/ref)
il1.wb_rate                  0.0000 # writeback rate (i.e., wrbks/ref)
il1.inv_rate                 0.0000 # invalidation rate (i.e., invs/ref)
dl1.accesses               27593509 # total number of accesses
dl1.hits                   24235046 # total number of hits
dl1.misses                  3358463 # total number of misses
dl1.replacements            3357951 # total number of replacements
dl1.writebacks                43922 # total number of writebacks
dl1.invalidations                 0 # total number of invalidations
dl1.miss_rate                0.1217 # miss rate (i.e., misses/ref)
dl1.repl_rate                0.1217 # replacement rate (i.e., repls/ref)
dl1.wb_rate                  0.0016 # writeback rate (i.e., wrbks/ref)
dl1.inv_rate                 0.0000 # invalidation rate (i.e., invs/ref)
ul2.accesses                4024609 # total number of accesses
ul2.hits                     681350 # total number of hits
ul2.misses                  3343259 # total number of misses
ul2.replacements            3339887 # total number of replacements
ul2.writebacks                27492 # total number of writebacks
ul2.invalidations                 0 # total number of invalidations
ul2.miss_rate                0.8307 # miss rate (i.e., misses/ref)
ul2.repl_rate                0.8299 # replacement rate (i.e., repls/ref)
ul2.wb_rate                  0.0068 # writeback rate (i.e., wrbks/ref)
ul2.inv_rate                 0.0000 # invalidation rate (i.e., invs/ref)
itlb.accesses             119265346 # total number of accesses
itlb.hits                 119265325 # total number of hits
itlb.misses                      21 # total number of misses
itlb.replacements                 0 # total number of replacements
itlb.writebacks                   0 # total number of writebacks
itlb.invalidations                0 # total number of invalidations
itlb.miss_rate               0.0000 # miss rate (i.e., misses/ref)
itlb.repl_rate               0.0000 # replacement rate (i.e., repls/ref)
itlb.wb_rate                 0.0000 # writeback rate (i.e., wrbks/ref)
itlb.inv_rate                0.0000 # invalidation rate (i.e., invs/ref)
dtlb.accesses              31007297 # total number of accesses
dtlb.hits                  28937455 # total number of hits
dtlb.misses                 2069842 # total number of misses
dtlb.replacements           2069714 # total number of replacements
dtlb.writebacks                   0 # total number of writebacks
dtlb.invalidations                0 # total number of invalidations
dtlb.miss_rate               0.0668 # miss rate (i.e., misses/ref)
dtlb.repl_rate               0.0667 # replacement rate (i.e., repls/ref)
dtlb.wb_rate                 0.0000 # writeback rate (i.e., wrbks/ref)
dtlb.inv_rate                0.0000 # invalidation rate (i.e., invs/ref)
sim_invalid_addrs                 0 # total non-speculative bogus addresses seen (debug var)
ld_text_base           0x0120000000 # program text (code) segment base
ld_text_size                 368640 # program text (code) size in bytes
ld_data_base           0x0140000000 # program initialized data segment base
ld_data_size                  83584 # program init'ed `.data' and uninit'ed `.bss' size in bytes
ld_stack_base          0x011ff9b000 # program stack segment base (highest address in stack)
ld_stack_size                 16384 # program initial stack size
ld_prog_entry          0x0120013040 # program entry point (initial PC)
ld_environ_base        0x011ff97000 # program environment base address address
ld_target_big_endian              0 # target executable endian-ness, non-zero if big endian
mem.page_count                 1809 # total number of pages allocated
mem.page_mem                 14472k # total size of memory pages allocated
mem.ptab_misses              253152 # total first level page table misses
mem.ptab_accesses        1170926428 # total page table accesses
mem.ptab_miss_rate           0.0002 # first level page table miss rate

sim-outorder: SimpleScalar/Alpha Tool Set version 3.0 of August, 2003.
Copyright (c) 1994-2003 by Todd M. Austin, Ph.D. and SimpleScalar, LLC.
All Rights Reserved. This version of SimpleScalar is licensed for academic
non-commercial use.  No portion of this work may be used by any commercial
entity, or for any commercial purpose, without the prior written permission
of SimpleScalar, LLC (info@simplescalar.com).

warning: section `.comment' ignored...
sim: command line: sim-outorder -fastfwd 100000000 -max:inst 100000000 -bpred 2lev -bpred:2lev 16 64 6 0 -mem:width 32 -mem:lat 300 2 ../../exe/ammp.exe 

sim: simulation started @ Fri Oct 25 21:45:32 2024, options follow:

sim-outorder: This simulator implements a very detailed out-of-order issue
superscalar processor with a two-level memory system and speculative
execution support.  This simulator is a performance simulator, tracking the
latency of all pipeline operations.

# -config                     # load configuration from a file
# -dumpconfig                 # dump configuration to a file
# -h                    false # print help message    
# -v                    false # verbose operation     
# -d                    false # enable debug message  
# -i                    false # start in Dlite debugger
-seed                       1 # random number generator seed (0 for timer seed)
# -q                    false # initialize and terminate immediately
# -chkpt               <null> # restore EIO trace execution from <fname>
# -redir:sim           <null> # redirect simulator output to file (non-interactive only)
# -redir:prog          <null> # redirect simulated program output to file
-nice                       0 # simulator scheduling priority
-max:inst           100000000 # maximum number of inst's to execute
-fastfwd            100000000 # number of insts skipped before timing starts
# -ptrace              <null> # generate pipetrace, i.e., <fname|stdout|stderr> <range>
-fetch:ifqsize              4 # instruction fetch queue size (in insts)
-fetch:mplat                3 # extra branch mis-prediction latency
-fetch:speed                1 # speed of front-end of machine relative to execution core
-bpred                   2lev # branch predictor type {nottaken|taken|perfect|bimod|2lev|comb}
-bpred:bimod     2048 # bimodal predictor config (<table size>)
-bpred:2lev      16 64 6 0 # 2-level predictor config (<l1size> <l2size> <hist_size> <xor>)
-bpred:comb      1024 # combining predictor config (<meta_table_size>)
-bpred:ras                  8 # return address stack size (0 for no return stack)
-bpred:btb       512 4 # BTB config (<num_sets> <associativity>)
# -bpred:spec_update       <null> # speculative predictors update in {ID|WB} (default non-spec)
-decode:width               4 # instruction decode B/W (insts/cycle)
-issue:width                4 # instruction issue B/W (insts/cycle)
-issue:inorder          false # run pipeline with in-order issue
-issue:wrongpath         true # issue instructions down wrong execution paths
-commit:width               4 # instruction commit B/W (insts/cycle)
-ruu:size                  16 # register update unit (RUU) size
-lsq:size                   8 # load/store queue (LSQ) size
-cache:dl1       dl1:128:32:4:l # l1 data cache config, i.e., {<config>|none}
-cache:dl1lat               1 # l1 data cache hit latency (in cycles)
-cache:dl2       ul2:1024:64:4:l # l2 data cache config, i.e., {<config>|none}
-cache:dl2lat               6 # l2 data cache hit latency (in cycles)
-cache:il1       il1:512:32:1:l # l1 inst cache config, i.e., {<config>|dl1|dl2|none}
-cache:il1lat               1 # l1 instruction cache hit latency (in cycles)
-cache:il2                dl2 # l2 instruction cache config, i.e., {<config>|dl2|none}
-cache:il2lat               6 # l2 instruction cache hit latency (in cycles)
-cache:flush            false # flush caches on system calls
-cache:icompress        false # convert 64-bit inst addresses to 32-bit inst equivalents
-mem:lat         300 2 # memory access latency (<first_chunk> <inter_chunk>)
-mem:width                 32 # memory access bus width (in bytes)
-tlb:itlb        itlb:16:4096:4:l # instruction TLB config, i.e., {<config>|none}
-tlb:dtlb        dtlb:32:4096:4:l # data TLB config, i.e., {<config>|none}
-tlb:lat                   30 # inst/data TLB miss latency (in cycles)
-res:ialu                   4 # total number of integer ALU's available
-res:imult                  1 # total number of integer multiplier/dividers available
-res:memport                2 # total number of memory system ports available (to CPU)
-res:fpalu                  4 # total number of floating point ALU's available
-res:fpmult                 1 # total number of floating point multiplier/dividers available
# -pcstat              <null> # profile stat(s) against text addr's (mult uses ok)
-bugcompat              false # operate in backward-compatible bugs mode (for testing only)

  Pipetrace range arguments are formatted as follows:

    {{@|#}<start>}:{{@|#|+}<end>}

  Both ends of the range are optional, if neither are specified, the entire
  execution is traced.  Ranges that start with a `@' designate an address
  range to be traced, those that start with an `#' designate a cycle count
  range.  All other range values represent an instruction count range.  The
  second argument, if specified with a `+', indicates a value relative
  to the first argument, e.g., 1000:+100 == 1000:1100.  Program symbols may
  be used in all contexts.

    Examples:   -ptrace FOO.trc #0:#1000
                -ptrace BAR.trc @2000:
                -ptrace BLAH.trc :1500
                -ptrace UXXE.trc :
                -ptrace FOOBAR.trc @main:+278

  Branch predictor configuration examples for 2-level predictor:
    Configurations:   N, M, W, X
      N   # entries in first level (# of shift register(s))
      W   width of shift register(s)
      M   # entries in 2nd level (# of counters, or other FSM)
      X   (yes-1/no-0) xor history and address for 2nd level index
    Sample predictors:
      GAg     : 1, W, 2^W, 0
      GAp     : 1, W, M (M > 2^W), 0
      PAg     : N, W, 2^W, 0
      PAp     : N, W, M (M == 2^(N+W)), 0
      gshare  : 1, W, 2^W, 1
  Predictor `comb' combines a bimodal and a 2-level predictor.

  The cache config parameter <config> has the following format:

    <name>:<nsets>:<bsize>:<assoc>:<repl>

    <name>   - name of the cache being defined
    <nsets>  - number of sets in the cache
    <bsize>  - block size of the cache
    <assoc>  - associativity of the cache
    <repl>   - block replacement strategy, 'l'-LRU, 'f'-FIFO, 'r'-random

    Examples:   -cache:dl1 dl1:4096:32:1:l
                -dtlb dtlb:128:4096:32:r

  Cache levels can be unified by pointing a level of the instruction cache
  hierarchy at the data cache hiearchy using the "dl1" and "dl2" cache
  configuration arguments.  Most sensible combinations are supported, e.g.,

    A unified l2 cache (il2 is pointed at dl2):
      -cache:il1 il1:128:64:1:l -cache:il2 dl2
      -cache:dl1 dl1:256:32:1:l -cache:dl2 ul2:1024:64:2:l

    Or, a fully unified cache hierarchy (il1 pointed at dl1):
      -cache:il1 dl1
      -cache:dl1 ul1:256:32:1:l -cache:dl2 ul2:1024:64:2:l



sim: ** fast forwarding 100000000 insts **
sim: ** starting performance simulation **

sim: ** simulation statistics **
sim_num_insn              100000001 # total number of instructions committed
sim_num_refs               30101334 # total number of loads and stores committed
sim_num_loads              23145477 # total number of loads committed
sim_num_stores         6955857.0000 # total number of stores committed
sim_num_branches           20651019 # total number of branches committed
sim_elapsed_time                 63 # total simulation time in seconds
sim_inst_rate          1587301.6032 # simulation speed (in insts/sec)
sim_total_insn            111565644 # total number of instructions executed
sim_total_refs             32840009 # total number of loads and stores executed
sim_total_loads            25361906 # total number of loads executed
sim_total_stores       7478103.0000 # total number of stores executed
sim_total_branches         22830502 # total number of branches executed
sim_cycle                1038974938 # total simulation time in cycles
sim_IPC                      0.0962 # instructions per cycle
sim_CPI                     10.3897 # cycles per instruction
sim_exec_BW                  0.1074 # total instructions (mis-spec + committed) per cycle
sim_IPB                      4.8424 # instruction per branch
IFQ_count                4090477606 # cumulative IFQ occupancy
IFQ_fcount               1017853825 # cumulative IFQ full count
ifq_occupancy                3.9370 # avg IFQ occupancy (insn's)
ifq_rate                     0.1074 # avg IFQ dispatch rate (insn/cycle)
ifq_latency                 36.6643 # avg IFQ occupant latency (cycle's)
ifq_full                     0.9797 # fraction of time (cycle's) IFQ was full
RUU_count               16344788186 # cumulative RUU occupancy
RUU_fcount               1001520280 # cumulative RUU full count
ruu_occupancy               15.7316 # avg RUU occupancy (insn's)
ruu_rate                     0.1074 # avg RUU dispatch rate (insn/cycle)
ruu_latency                146.5038 # avg RUU occupant latency (cycle's)
ruu_full                     0.9640 # fraction of time (cycle's) RUU was full
LSQ_count                8044387365 # cumulative LSQ occupancy
LSQ_fcount                985156338 # cumulative LSQ full count
lsq_occupancy                7.7426 # avg LSQ occupancy (insn's)
lsq_rate                     0.1074 # avg LSQ dispatch rate (insn/cycle)
lsq_latency                 72.1045 # avg LSQ occupant latency (cycle's)
lsq_full                     0.9482 # fraction of time (cycle's) LSQ was full
sim_slip                24462996929 # total number of slip cycles
avg_sim_slip               244.6300 # the average slip between issue and retirement
bpred_2lev.lookups         23421230 # total number of bpred lookups
bpred_2lev.updates         20651018 # total number of updates
bpred_2lev.addr_hits       18443985 # total number of address-predicted hits
bpred_2lev.dir_hits        18479697 # total number of direction-predicted hits (includes addr-hits)
bpred_2lev.misses           2171321 # total number of misses
bpred_2lev.jr_hits          1109231 # total number of address-predicted hits for JR's
bpred_2lev.jr_seen          1144770 # total number of JR's seen
bpred_2lev.jr_non_ras_hits.PP         3060 # total number of address-predicted hits for non-RAS JR's
bpred_2lev.jr_non_ras_seen.PP         3065 # total number of non-RAS JR's seen
bpred_2lev.bpred_addr_rate    0.8931 # branch address-prediction rate (i.e., addr-hits/updates)
bpred_2lev.bpred_dir_rate    0.8949 # branch direction-prediction rate (i.e., all-hits/updates)
bpred_2lev.bpred_jr_rate    0.9690 # JR address-prediction rate (i.e., JR addr-hits/JRs seen)
bpred_2lev.bpred_jr_non_ras_rate.PP    0.9984 # non-RAS JR addr-pred rate (ie, non-RAS JR hits/JRs seen)
bpred_2lev.retstack_pushes      1426208 # total number of address pushed onto ret-addr stack
bpred_2lev.retstack_pops      1293476 # total number of address popped off of ret-addr stack
bpred_2lev.used_ras.PP      1141705 # total number of RAS predictions used
bpred_2lev.ras_hits.PP      1106171 # total number of RAS hits
bpred_2lev.ras_rate.PP    0.9689 # RAS prediction rate (i.e., RAS hits/used RAS)
il1.accesses              116043141 # total number of accesses
il1.hits                  115414074 # total number of hits
il1.misses                   629067 # total number of misses
il1.replacements             628741 # total number of replacements
il1.writebacks                    0 # total number of writebacks
il1.invalidations                 0 # total number of invalidations
il1.miss_rate                0.0054 # miss rate (i.e., misses/ref)
il1.repl_rate                0.0054 # replacement rate (i.e., repls/ref)
il1.wb_rate                  0.0000 # writeback rate (i.e., wrbks/ref)
il1.inv_rate                 0.0000 # invalidation rate (i.e., invs/ref)
dl1.accesses               27511665 # total number of accesses
dl1.hits                   24154871 # total number of hits
dl1.misses                  3356794 # total number of misses
dl1.replacements            3356282 # total number of replacements
dl1.writebacks                43908 # total number of writebacks
dl1.invalidations                 0 # total number of invalidations
dl1.miss_rate                0.1220 # miss rate (i.e., misses/ref)
dl1.repl_rate                0.1220 # replacement rate (i.e., repls/ref)
dl1.wb_rate                  0.0016 # writeback rate (i.e., wrbks/ref)
dl1.inv_rate                 0.0000 # invalidation rate (i.e., invs/ref)
ul2.accesses                4029769 # total number of accesses
ul2.hits                     688348 # total number of hits
ul2.misses                  3341421 # total number of misses
ul2.replacements            3338048 # total number of replacements
ul2.writebacks                27484 # total number of writebacks
ul2.invalidations                 0 # total number of invalidations
ul2.miss_rate                0.8292 # miss rate (i.e., misses/ref)
ul2.repl_rate                0.8283 # replacement rate (i.e., repls/ref)
ul2.wb_rate                  0.0068 # writeback rate (i.e., wrbks/ref)
ul2.inv_rate                 0.0000 # invalidation rate (i.e., invs/ref)
itlb.accesses             116043141 # total number of accesses
itlb.hits                 116043119 # total number of hits
itlb.misses                      22 # total number of misses
itlb.replacements                 0 # total number of replacements
itlb.writebacks                   0 # total number of writebacks
itlb.invalidations                0 # total number of invalidations
itlb.miss_rate               0.0000 # miss rate (i.e., misses/ref)
itlb.repl_rate               0.0000 # replacement rate (i.e., repls/ref)
itlb.wb_rate                 0.0000 # writeback rate (i.e., wrbks/ref)
itlb.inv_rate                0.0000 # invalidation rate (i.e., invs/ref)
dtlb.accesses              30953929 # total number of accesses
dtlb.hits                  28885240 # total number of hits
dtlb.misses                 2068689 # total number of misses
dtlb.replacements           2068561 # total number of replacements
dtlb.writebacks                   0 # total number of writebacks
dtlb.invalidations                0 # total number of invalidations
dtlb.miss_rate               0.0668 # miss rate (i.e., misses/ref)
dtlb.repl_rate               0.0668 # replacement rate (i.e., repls/ref)
dtlb.wb_rate                 0.0000 # writeback rate (i.e., wrbks/ref)
dtlb.inv_rate                0.0000 # invalidation rate (i.e., invs/ref)
sim_invalid_addrs                 0 # total non-speculative bogus addresses seen (debug var)
ld_text_base           0x0120000000 # program text (code) segment base
ld_text_size                 368640 # program text (code) size in bytes
ld_data_base           0x0140000000 # program initialized data segment base
ld_data_size                  83584 # program init'ed `.data' and uninit'ed `.bss' size in bytes
ld_stack_base          0x011ff9b000 # program stack segment base (highest address in stack)
ld_stack_size                 16384 # program initial stack size
ld_prog_entry          0x0120013040 # program entry point (initial PC)
ld_environ_base        0x011ff97000 # program environment base address address
ld_target_big_endian              0 # target executable endian-ness, non-zero if big endian
mem.page_count                 1809 # total number of pages allocated
mem.page_mem                 14472k # total size of memory pages allocated
mem.ptab_misses              258609 # total first level page table misses
mem.ptab_accesses        1163723178 # total page table accesses
mem.ptab_miss_rate           0.0002 # first level page table miss rate

sim-outorder: SimpleScalar/Alpha Tool Set version 3.0 of August, 2003.
Copyright (c) 1994-2003 by Todd M. Austin, Ph.D. and SimpleScalar, LLC.
All Rights Reserved. This version of SimpleScalar is licensed for academic
non-commercial use.  No portion of this work may be used by any commercial
entity, or for any commercial purpose, without the prior written permission
of SimpleScalar, LLC (info@simplescalar.com).

warning: section `.comment' ignored...
sim: command line: sim-outorder -fastfwd 100000000 -max:inst 100000000 -bpred 2lev -bpred:2lev 32 256 8 0 -mem:width 32 -mem:lat 300 2 ../../exe/ammp.exe 

sim: simulation started @ Fri Oct 25 21:46:36 2024, options follow:

sim-outorder: This simulator implements a very detailed out-of-order issue
superscalar processor with a two-level memory system and speculative
execution support.  This simulator is a performance simulator, tracking the
latency of all pipeline operations.

# -config                     # load configuration from a file
# -dumpconfig                 # dump configuration to a file
# -h                    false # print help message    
# -v                    false # verbose operation     
# -d                    false # enable debug message  
# -i                    false # start in Dlite debugger
-seed                       1 # random number generator seed (0 for timer seed)
# -q                    false # initialize and terminate immediately
# -chkpt               <null> # restore EIO trace execution from <fname>
# -redir:sim           <null> # redirect simulator output to file (non-interactive only)
# -redir:prog          <null> # redirect simulated program output to file
-nice                       0 # simulator scheduling priority
-max:inst           100000000 # maximum number of inst's to execute
-fastfwd            100000000 # number of insts skipped before timing starts
# -ptrace              <null> # generate pipetrace, i.e., <fname|stdout|stderr> <range>
-fetch:ifqsize              4 # instruction fetch queue size (in insts)
-fetch:mplat                3 # extra branch mis-prediction latency
-fetch:speed                1 # speed of front-end of machine relative to execution core
-bpred                   2lev # branch predictor type {nottaken|taken|perfect|bimod|2lev|comb}
-bpred:bimod     2048 # bimodal predictor config (<table size>)
-bpred:2lev      32 256 8 0 # 2-level predictor config (<l1size> <l2size> <hist_size> <xor>)
-bpred:comb      1024 # combining predictor config (<meta_table_size>)
-bpred:ras                  8 # return address stack size (0 for no return stack)
-bpred:btb       512 4 # BTB config (<num_sets> <associativity>)
# -bpred:spec_update       <null> # speculative predictors update in {ID|WB} (default non-spec)
-decode:width               4 # instruction decode B/W (insts/cycle)
-issue:width                4 # instruction issue B/W (insts/cycle)
-issue:inorder          false # run pipeline with in-order issue
-issue:wrongpath         true # issue instructions down wrong execution paths
-commit:width               4 # instruction commit B/W (insts/cycle)
-ruu:size                  16 # register update unit (RUU) size
-lsq:size                   8 # load/store queue (LSQ) size
-cache:dl1       dl1:128:32:4:l # l1 data cache config, i.e., {<config>|none}
-cache:dl1lat               1 # l1 data cache hit latency (in cycles)
-cache:dl2       ul2:1024:64:4:l # l2 data cache config, i.e., {<config>|none}
-cache:dl2lat               6 # l2 data cache hit latency (in cycles)
-cache:il1       il1:512:32:1:l # l1 inst cache config, i.e., {<config>|dl1|dl2|none}
-cache:il1lat               1 # l1 instruction cache hit latency (in cycles)
-cache:il2                dl2 # l2 instruction cache config, i.e., {<config>|dl2|none}
-cache:il2lat               6 # l2 instruction cache hit latency (in cycles)
-cache:flush            false # flush caches on system calls
-cache:icompress        false # convert 64-bit inst addresses to 32-bit inst equivalents
-mem:lat         300 2 # memory access latency (<first_chunk> <inter_chunk>)
-mem:width                 32 # memory access bus width (in bytes)
-tlb:itlb        itlb:16:4096:4:l # instruction TLB config, i.e., {<config>|none}
-tlb:dtlb        dtlb:32:4096:4:l # data TLB config, i.e., {<config>|none}
-tlb:lat                   30 # inst/data TLB miss latency (in cycles)
-res:ialu                   4 # total number of integer ALU's available
-res:imult                  1 # total number of integer multiplier/dividers available
-res:memport                2 # total number of memory system ports available (to CPU)
-res:fpalu                  4 # total number of floating point ALU's available
-res:fpmult                 1 # total number of floating point multiplier/dividers available
# -pcstat              <null> # profile stat(s) against text addr's (mult uses ok)
-bugcompat              false # operate in backward-compatible bugs mode (for testing only)

  Pipetrace range arguments are formatted as follows:

    {{@|#}<start>}:{{@|#|+}<end>}

  Both ends of the range are optional, if neither are specified, the entire
  execution is traced.  Ranges that start with a `@' designate an address
  range to be traced, those that start with an `#' designate a cycle count
  range.  All other range values represent an instruction count range.  The
  second argument, if specified with a `+', indicates a value relative
  to the first argument, e.g., 1000:+100 == 1000:1100.  Program symbols may
  be used in all contexts.

    Examples:   -ptrace FOO.trc #0:#1000
                -ptrace BAR.trc @2000:
                -ptrace BLAH.trc :1500
                -ptrace UXXE.trc :
                -ptrace FOOBAR.trc @main:+278

  Branch predictor configuration examples for 2-level predictor:
    Configurations:   N, M, W, X
      N   # entries in first level (# of shift register(s))
      W   width of shift register(s)
      M   # entries in 2nd level (# of counters, or other FSM)
      X   (yes-1/no-0) xor history and address for 2nd level index
    Sample predictors:
      GAg     : 1, W, 2^W, 0
      GAp     : 1, W, M (M > 2^W), 0
      PAg     : N, W, 2^W, 0
      PAp     : N, W, M (M == 2^(N+W)), 0
      gshare  : 1, W, 2^W, 1
  Predictor `comb' combines a bimodal and a 2-level predictor.

  The cache config parameter <config> has the following format:

    <name>:<nsets>:<bsize>:<assoc>:<repl>

    <name>   - name of the cache being defined
    <nsets>  - number of sets in the cache
    <bsize>  - block size of the cache
    <assoc>  - associativity of the cache
    <repl>   - block replacement strategy, 'l'-LRU, 'f'-FIFO, 'r'-random

    Examples:   -cache:dl1 dl1:4096:32:1:l
                -dtlb dtlb:128:4096:32:r

  Cache levels can be unified by pointing a level of the instruction cache
  hierarchy at the data cache hiearchy using the "dl1" and "dl2" cache
  configuration arguments.  Most sensible combinations are supported, e.g.,

    A unified l2 cache (il2 is pointed at dl2):
      -cache:il1 il1:128:64:1:l -cache:il2 dl2
      -cache:dl1 dl1:256:32:1:l -cache:dl2 ul2:1024:64:2:l

    Or, a fully unified cache hierarchy (il1 pointed at dl1):
      -cache:il1 dl1
      -cache:dl1 ul1:256:32:1:l -cache:dl2 ul2:1024:64:2:l



sim: ** fast forwarding 100000000 insts **
sim: ** starting performance simulation **

sim: ** simulation statistics **
sim_num_insn              100000001 # total number of instructions committed
sim_num_refs               30101334 # total number of loads and stores committed
sim_num_loads              23145477 # total number of loads committed
sim_num_stores         6955857.0000 # total number of stores committed
sim_num_branches           20651019 # total number of branches committed
sim_elapsed_time                 66 # total simulation time in seconds
sim_inst_rate          1515151.5303 # simulation speed (in insts/sec)
sim_total_insn            109603992 # total number of instructions executed
sim_total_refs             32294100 # total number of loads and stores executed
sim_total_loads            24964368 # total number of loads executed
sim_total_stores       7329732.0000 # total number of stores executed
sim_total_branches         22435229 # total number of branches executed
sim_cycle                1036437551 # total simulation time in cycles
sim_IPC                      0.0965 # instructions per cycle
sim_CPI                     10.3644 # cycles per instruction
sim_exec_BW                  0.1058 # total instructions (mis-spec + committed) per cycle
sim_IPB                      4.8424 # instruction per branch
IFQ_count                4090783338 # cumulative IFQ occupancy
IFQ_fcount               1018536326 # cumulative IFQ full count
ifq_occupancy                3.9470 # avg IFQ occupancy (insn's)
ifq_rate                     0.1058 # avg IFQ dispatch rate (insn/cycle)
ifq_latency                 37.3233 # avg IFQ occupant latency (cycle's)
ifq_full                     0.9827 # fraction of time (cycle's) IFQ was full
RUU_count               16344951758 # cumulative RUU occupancy
RUU_fcount               1003651696 # cumulative RUU full count
ruu_occupancy               15.7703 # avg RUU occupancy (insn's)
ruu_rate                     0.1058 # avg RUU dispatch rate (insn/cycle)
ruu_latency                149.1273 # avg RUU occupant latency (cycle's)
ruu_full                     0.9684 # fraction of time (cycle's) RUU was full
LSQ_count                8044587630 # cumulative LSQ occupancy
LSQ_fcount                985535648 # cumulative LSQ full count
lsq_occupancy                7.7618 # avg LSQ occupancy (insn's)
lsq_rate                     0.1058 # avg LSQ dispatch rate (insn/cycle)
lsq_latency                 73.3968 # avg LSQ occupant latency (cycle's)
lsq_full                     0.9509 # fraction of time (cycle's) LSQ was full
sim_slip                24475385184 # total number of slip cycles
avg_sim_slip               244.7538 # the average slip between issue and retirement
bpred_2lev.lookups         22925132 # total number of bpred lookups
bpred_2lev.updates         20651018 # total number of updates
bpred_2lev.addr_hits       19101052 # total number of address-predicted hits
bpred_2lev.dir_hits        19122708 # total number of direction-predicted hits (includes addr-hits)
bpred_2lev.misses           1528310 # total number of misses
bpred_2lev.jr_hits          1123293 # total number of address-predicted hits for JR's
bpred_2lev.jr_seen          1144770 # total number of JR's seen
bpred_2lev.jr_non_ras_hits.PP         3060 # total number of address-predicted hits for non-RAS JR's
bpred_2lev.jr_non_ras_seen.PP         3065 # total number of non-RAS JR's seen
bpred_2lev.bpred_addr_rate    0.9249 # branch address-prediction rate (i.e., addr-hits/updates)
bpred_2lev.bpred_dir_rate    0.9260 # branch direction-prediction rate (i.e., all-hits/updates)
bpred_2lev.bpred_jr_rate    0.9812 # JR address-prediction rate (i.e., JR addr-hits/JRs seen)
bpred_2lev.bpred_jr_non_ras_rate.PP    0.9984 # non-RAS JR addr-pred rate (ie, non-RAS JR hits/JRs seen)
bpred_2lev.retstack_pushes      1393506 # total number of address pushed onto ret-addr stack
bpred_2lev.retstack_pops      1254682 # total number of address popped off of ret-addr stack
bpred_2lev.used_ras.PP      1141705 # total number of RAS predictions used
bpred_2lev.ras_hits.PP      1120233 # total number of RAS hits
bpred_2lev.ras_rate.PP    0.9812 # RAS prediction rate (i.e., RAS hits/used RAS)
il1.accesses              113697245 # total number of accesses
il1.hits                  113057690 # total number of hits
il1.misses                   639555 # total number of misses
il1.replacements             639232 # total number of replacements
il1.writebacks                    0 # total number of writebacks
il1.invalidations                 0 # total number of invalidations
il1.miss_rate                0.0056 # miss rate (i.e., misses/ref)
il1.repl_rate                0.0056 # replacement rate (i.e., repls/ref)
il1.wb_rate                  0.0000 # writeback rate (i.e., wrbks/ref)
il1.inv_rate                 0.0000 # invalidation rate (i.e., invs/ref)
dl1.accesses               27360476 # total number of accesses
dl1.hits                   24003206 # total number of hits
dl1.misses                  3357270 # total number of misses
dl1.replacements            3356758 # total number of replacements
dl1.writebacks                43927 # total number of writebacks
dl1.invalidations                 0 # total number of invalidations
dl1.miss_rate                0.1227 # miss rate (i.e., misses/ref)
dl1.repl_rate                0.1227 # replacement rate (i.e., repls/ref)
dl1.wb_rate                  0.0016 # writeback rate (i.e., wrbks/ref)
dl1.inv_rate                 0.0000 # invalidation rate (i.e., invs/ref)
ul2.accesses                4040752 # total number of accesses
ul2.hits                     698353 # total number of hits
ul2.misses                  3342399 # total number of misses
ul2.replacements            3339027 # total number of replacements
ul2.writebacks                27504 # total number of writebacks
ul2.invalidations                 0 # total number of invalidations
ul2.miss_rate                0.8272 # miss rate (i.e., misses/ref)
ul2.repl_rate                0.8263 # replacement rate (i.e., repls/ref)
ul2.wb_rate                  0.0068 # writeback rate (i.e., wrbks/ref)
ul2.inv_rate                 0.0000 # invalidation rate (i.e., invs/ref)
itlb.accesses             113697245 # total number of accesses
itlb.hits                 113697223 # total number of hits
itlb.misses                      22 # total number of misses
itlb.replacements                 0 # total number of replacements
itlb.writebacks                   0 # total number of writebacks
itlb.invalidations                0 # total number of invalidations
itlb.miss_rate               0.0000 # miss rate (i.e., misses/ref)
itlb.repl_rate               0.0000 # replacement rate (i.e., repls/ref)
itlb.wb_rate                 0.0000 # writeback rate (i.e., wrbks/ref)
itlb.inv_rate                0.0000 # invalidation rate (i.e., invs/ref)
dtlb.accesses              30771482 # total number of accesses
dtlb.hits                  28702480 # total number of hits
dtlb.misses                 2069002 # total number of misses
dtlb.replacements           2068874 # total number of replacements
dtlb.writebacks                   0 # total number of writebacks
dtlb.invalidations                0 # total number of invalidations
dtlb.miss_rate               0.0672 # miss rate (i.e., misses/ref)
dtlb.repl_rate               0.0672 # replacement rate (i.e., repls/ref)
dtlb.wb_rate                 0.0000 # writeback rate (i.e., wrbks/ref)
dtlb.inv_rate                0.0000 # invalidation rate (i.e., invs/ref)
sim_invalid_addrs                 0 # total non-speculative bogus addresses seen (debug var)
ld_text_base           0x0120000000 # program text (code) segment base
ld_text_size                 368640 # program text (code) size in bytes
ld_data_base           0x0140000000 # program initialized data segment base
ld_data_size                  83584 # program init'ed `.data' and uninit'ed `.bss' size in bytes
ld_stack_base          0x011ff9b000 # program stack segment base (highest address in stack)
ld_stack_size                 16384 # program initial stack size
ld_prog_entry          0x0120013040 # program entry point (initial PC)
ld_environ_base        0x011ff97000 # program environment base address address
ld_target_big_endian              0 # target executable endian-ness, non-zero if big endian
mem.page_count                 1809 # total number of pages allocated
mem.page_mem                 14472k # total size of memory pages allocated
mem.ptab_misses              258968 # total first level page table misses
mem.ptab_accesses        1157707522 # total page table accesses
mem.ptab_miss_rate           0.0002 # first level page table miss rate

sim-outorder: SimpleScalar/Alpha Tool Set version 3.0 of August, 2003.
Copyright (c) 1994-2003 by Todd M. Austin, Ph.D. and SimpleScalar, LLC.
All Rights Reserved. This version of SimpleScalar is licensed for academic
non-commercial use.  No portion of this work may be used by any commercial
entity, or for any commercial purpose, without the prior written permission
of SimpleScalar, LLC (info@simplescalar.com).

warning: section `.comment' ignored...
sim: command line: sim-outorder -fastfwd 100000000 -max:inst 100000000 -bpred 2lev -bpred:2lev 64 1024 10 0 -mem:width 32 -mem:lat 300 2 ../../exe/ammp.exe 

sim: simulation started @ Fri Oct 25 21:47:43 2024, options follow:

sim-outorder: This simulator implements a very detailed out-of-order issue
superscalar processor with a two-level memory system and speculative
execution support.  This simulator is a performance simulator, tracking the
latency of all pipeline operations.

# -config                     # load configuration from a file
# -dumpconfig                 # dump configuration to a file
# -h                    false # print help message    
# -v                    false # verbose operation     
# -d                    false # enable debug message  
# -i                    false # start in Dlite debugger
-seed                       1 # random number generator seed (0 for timer seed)
# -q                    false # initialize and terminate immediately
# -chkpt               <null> # restore EIO trace execution from <fname>
# -redir:sim           <null> # redirect simulator output to file (non-interactive only)
# -redir:prog          <null> # redirect simulated program output to file
-nice                       0 # simulator scheduling priority
-max:inst           100000000 # maximum number of inst's to execute
-fastfwd            100000000 # number of insts skipped before timing starts
# -ptrace              <null> # generate pipetrace, i.e., <fname|stdout|stderr> <range>
-fetch:ifqsize              4 # instruction fetch queue size (in insts)
-fetch:mplat                3 # extra branch mis-prediction latency
-fetch:speed                1 # speed of front-end of machine relative to execution core
-bpred                   2lev # branch predictor type {nottaken|taken|perfect|bimod|2lev|comb}
-bpred:bimod     2048 # bimodal predictor config (<table size>)
-bpred:2lev      64 1024 10 0 # 2-level predictor config (<l1size> <l2size> <hist_size> <xor>)
-bpred:comb      1024 # combining predictor config (<meta_table_size>)
-bpred:ras                  8 # return address stack size (0 for no return stack)
-bpred:btb       512 4 # BTB config (<num_sets> <associativity>)
# -bpred:spec_update       <null> # speculative predictors update in {ID|WB} (default non-spec)
-decode:width               4 # instruction decode B/W (insts/cycle)
-issue:width                4 # instruction issue B/W (insts/cycle)
-issue:inorder          false # run pipeline with in-order issue
-issue:wrongpath         true # issue instructions down wrong execution paths
-commit:width               4 # instruction commit B/W (insts/cycle)
-ruu:size                  16 # register update unit (RUU) size
-lsq:size                   8 # load/store queue (LSQ) size
-cache:dl1       dl1:128:32:4:l # l1 data cache config, i.e., {<config>|none}
-cache:dl1lat               1 # l1 data cache hit latency (in cycles)
-cache:dl2       ul2:1024:64:4:l # l2 data cache config, i.e., {<config>|none}
-cache:dl2lat               6 # l2 data cache hit latency (in cycles)
-cache:il1       il1:512:32:1:l # l1 inst cache config, i.e., {<config>|dl1|dl2|none}
-cache:il1lat               1 # l1 instruction cache hit latency (in cycles)
-cache:il2                dl2 # l2 instruction cache config, i.e., {<config>|dl2|none}
-cache:il2lat               6 # l2 instruction cache hit latency (in cycles)
-cache:flush            false # flush caches on system calls
-cache:icompress        false # convert 64-bit inst addresses to 32-bit inst equivalents
-mem:lat         300 2 # memory access latency (<first_chunk> <inter_chunk>)
-mem:width                 32 # memory access bus width (in bytes)
-tlb:itlb        itlb:16:4096:4:l # instruction TLB config, i.e., {<config>|none}
-tlb:dtlb        dtlb:32:4096:4:l # data TLB config, i.e., {<config>|none}
-tlb:lat                   30 # inst/data TLB miss latency (in cycles)
-res:ialu                   4 # total number of integer ALU's available
-res:imult                  1 # total number of integer multiplier/dividers available
-res:memport                2 # total number of memory system ports available (to CPU)
-res:fpalu                  4 # total number of floating point ALU's available
-res:fpmult                 1 # total number of floating point multiplier/dividers available
# -pcstat              <null> # profile stat(s) against text addr's (mult uses ok)
-bugcompat              false # operate in backward-compatible bugs mode (for testing only)

  Pipetrace range arguments are formatted as follows:

    {{@|#}<start>}:{{@|#|+}<end>}

  Both ends of the range are optional, if neither are specified, the entire
  execution is traced.  Ranges that start with a `@' designate an address
  range to be traced, those that start with an `#' designate a cycle count
  range.  All other range values represent an instruction count range.  The
  second argument, if specified with a `+', indicates a value relative
  to the first argument, e.g., 1000:+100 == 1000:1100.  Program symbols may
  be used in all contexts.

    Examples:   -ptrace FOO.trc #0:#1000
                -ptrace BAR.trc @2000:
                -ptrace BLAH.trc :1500
                -ptrace UXXE.trc :
                -ptrace FOOBAR.trc @main:+278

  Branch predictor configuration examples for 2-level predictor:
    Configurations:   N, M, W, X
      N   # entries in first level (# of shift register(s))
      W   width of shift register(s)
      M   # entries in 2nd level (# of counters, or other FSM)
      X   (yes-1/no-0) xor history and address for 2nd level index
    Sample predictors:
      GAg     : 1, W, 2^W, 0
      GAp     : 1, W, M (M > 2^W), 0
      PAg     : N, W, 2^W, 0
      PAp     : N, W, M (M == 2^(N+W)), 0
      gshare  : 1, W, 2^W, 1
  Predictor `comb' combines a bimodal and a 2-level predictor.

  The cache config parameter <config> has the following format:

    <name>:<nsets>:<bsize>:<assoc>:<repl>

    <name>   - name of the cache being defined
    <nsets>  - number of sets in the cache
    <bsize>  - block size of the cache
    <assoc>  - associativity of the cache
    <repl>   - block replacement strategy, 'l'-LRU, 'f'-FIFO, 'r'-random

    Examples:   -cache:dl1 dl1:4096:32:1:l
                -dtlb dtlb:128:4096:32:r

  Cache levels can be unified by pointing a level of the instruction cache
  hierarchy at the data cache hiearchy using the "dl1" and "dl2" cache
  configuration arguments.  Most sensible combinations are supported, e.g.,

    A unified l2 cache (il2 is pointed at dl2):
      -cache:il1 il1:128:64:1:l -cache:il2 dl2
      -cache:dl1 dl1:256:32:1:l -cache:dl2 ul2:1024:64:2:l

    Or, a fully unified cache hierarchy (il1 pointed at dl1):
      -cache:il1 dl1
      -cache:dl1 ul1:256:32:1:l -cache:dl2 ul2:1024:64:2:l



sim: ** fast forwarding 100000000 insts **
sim: ** starting performance simulation **

sim: ** simulation statistics **
sim_num_insn              100000001 # total number of instructions committed
sim_num_refs               30101334 # total number of loads and stores committed
sim_num_loads              23145477 # total number of loads committed
sim_num_stores         6955857.0000 # total number of stores committed
sim_num_branches           20651019 # total number of branches committed
sim_elapsed_time                 63 # total simulation time in seconds
sim_inst_rate          1587301.6032 # simulation speed (in insts/sec)
sim_total_insn            106758329 # total number of instructions executed
sim_total_refs             31927269 # total number of loads and stores executed
sim_total_loads            24686345 # total number of loads executed
sim_total_stores       7240924.0000 # total number of stores executed
sim_total_branches         21947233 # total number of branches executed
sim_cycle                1033864617 # total simulation time in cycles
sim_IPC                      0.0967 # instructions per cycle
sim_CPI                     10.3386 # cycles per instruction
sim_exec_BW                  0.1033 # total instructions (mis-spec + committed) per cycle
sim_IPB                      4.8424 # instruction per branch
IFQ_count                4087800810 # cumulative IFQ occupancy
IFQ_fcount               1017802927 # cumulative IFQ full count
ifq_occupancy                3.9539 # avg IFQ occupancy (insn's)
ifq_rate                     0.1033 # avg IFQ dispatch rate (insn/cycle)
ifq_latency                 38.2902 # avg IFQ occupant latency (cycle's)
ifq_full                     0.9845 # fraction of time (cycle's) IFQ was full
RUU_count               16341750120 # cumulative RUU occupancy
RUU_fcount               1004204916 # cumulative RUU full count
ruu_occupancy               15.8065 # avg RUU occupancy (insn's)
ruu_rate                     0.1033 # avg RUU dispatch rate (insn/cycle)
ruu_latency                153.0724 # avg RUU occupant latency (cycle's)
ruu_full                     0.9713 # fraction of time (cycle's) RUU was full
LSQ_count                8043872165 # cumulative LSQ occupancy
LSQ_fcount                985083345 # cumulative LSQ full count
lsq_occupancy                7.7804 # avg LSQ occupancy (insn's)
lsq_rate                     0.1033 # avg LSQ dispatch rate (insn/cycle)
lsq_latency                 75.3466 # avg LSQ occupant latency (cycle's)
lsq_full                     0.9528 # fraction of time (cycle's) LSQ was full
sim_slip                24470823682 # total number of slip cycles
avg_sim_slip               244.7082 # the average slip between issue and retirement
bpred_2lev.lookups         22359414 # total number of bpred lookups
bpred_2lev.updates         20651018 # total number of updates
bpred_2lev.addr_hits       19557145 # total number of address-predicted hits
bpred_2lev.dir_hits        19586980 # total number of direction-predicted hits (includes addr-hits)
bpred_2lev.misses           1064038 # total number of misses
bpred_2lev.jr_hits          1115112 # total number of address-predicted hits for JR's
bpred_2lev.jr_seen          1144770 # total number of JR's seen
bpred_2lev.jr_non_ras_hits.PP         3060 # total number of address-predicted hits for non-RAS JR's
bpred_2lev.jr_non_ras_seen.PP         3065 # total number of non-RAS JR's seen
bpred_2lev.bpred_addr_rate    0.9470 # branch address-prediction rate (i.e., addr-hits/updates)
bpred_2lev.bpred_dir_rate    0.9485 # branch direction-prediction rate (i.e., all-hits/updates)
bpred_2lev.bpred_jr_rate    0.9741 # JR address-prediction rate (i.e., JR addr-hits/JRs seen)
bpred_2lev.bpred_jr_non_ras_rate.PP    0.9984 # non-RAS JR addr-pred rate (ie, non-RAS JR hits/JRs seen)
bpred_2lev.retstack_pushes      1354153 # total number of address pushed onto ret-addr stack
bpred_2lev.retstack_pops      1245913 # total number of address popped off of ret-addr stack
bpred_2lev.used_ras.PP      1141705 # total number of RAS predictions used
bpred_2lev.ras_hits.PP      1112052 # total number of RAS hits
bpred_2lev.ras_rate.PP    0.9740 # RAS prediction rate (i.e., RAS hits/used RAS)
il1.accesses              109759783 # total number of accesses
il1.hits                  109133676 # total number of hits
il1.misses                   626107 # total number of misses
il1.replacements             625786 # total number of replacements
il1.writebacks                    0 # total number of writebacks
il1.invalidations                 0 # total number of invalidations
il1.miss_rate                0.0057 # miss rate (i.e., misses/ref)
il1.repl_rate                0.0057 # replacement rate (i.e., repls/ref)
il1.wb_rate                  0.0000 # writeback rate (i.e., wrbks/ref)
il1.inv_rate                 0.0000 # invalidation rate (i.e., invs/ref)
dl1.accesses               27265736 # total number of accesses
dl1.hits                   23908775 # total number of hits
dl1.misses                  3356961 # total number of misses
dl1.replacements            3356449 # total number of replacements
dl1.writebacks                43889 # total number of writebacks
dl1.invalidations                 0 # total number of invalidations
dl1.miss_rate                0.1231 # miss rate (i.e., misses/ref)
dl1.repl_rate                0.1231 # replacement rate (i.e., repls/ref)
dl1.wb_rate                  0.0016 # writeback rate (i.e., wrbks/ref)
dl1.inv_rate                 0.0000 # invalidation rate (i.e., invs/ref)
ul2.accesses                4026957 # total number of accesses
ul2.hits                     684805 # total number of hits
ul2.misses                  3342152 # total number of misses
ul2.replacements            3338779 # total number of replacements
ul2.writebacks                27476 # total number of writebacks
ul2.invalidations                 0 # total number of invalidations
ul2.miss_rate                0.8299 # miss rate (i.e., misses/ref)
ul2.repl_rate                0.8291 # replacement rate (i.e., repls/ref)
ul2.wb_rate                  0.0068 # writeback rate (i.e., wrbks/ref)
ul2.inv_rate                 0.0000 # invalidation rate (i.e., invs/ref)
itlb.accesses             109759783 # total number of accesses
itlb.hits                 109759762 # total number of hits
itlb.misses                      21 # total number of misses
itlb.replacements                 0 # total number of replacements
itlb.writebacks                   0 # total number of writebacks
itlb.invalidations                0 # total number of invalidations
itlb.miss_rate               0.0000 # miss rate (i.e., misses/ref)
itlb.repl_rate               0.0000 # replacement rate (i.e., repls/ref)
itlb.wb_rate                 0.0000 # writeback rate (i.e., wrbks/ref)
itlb.inv_rate                0.0000 # invalidation rate (i.e., invs/ref)
dtlb.accesses              30683077 # total number of accesses
dtlb.hits                  28614501 # total number of hits
dtlb.misses                 2068576 # total number of misses
dtlb.replacements           2068448 # total number of replacements
dtlb.writebacks                   0 # total number of writebacks
dtlb.invalidations                0 # total number of invalidations
dtlb.miss_rate               0.0674 # miss rate (i.e., misses/ref)
dtlb.repl_rate               0.0674 # replacement rate (i.e., repls/ref)
dtlb.wb_rate                 0.0000 # writeback rate (i.e., wrbks/ref)
dtlb.inv_rate                0.0000 # invalidation rate (i.e., invs/ref)
sim_invalid_addrs                 0 # total non-speculative bogus addresses seen (debug var)
ld_text_base           0x0120000000 # program text (code) segment base
ld_text_size                 368640 # program text (code) size in bytes
ld_data_base           0x0140000000 # program initialized data segment base
ld_data_size                  83584 # program init'ed `.data' and uninit'ed `.bss' size in bytes
ld_stack_base          0x011ff9b000 # program stack segment base (highest address in stack)
ld_stack_size                 16384 # program initial stack size
ld_prog_entry          0x0120013040 # program entry point (initial PC)
ld_environ_base        0x011ff97000 # program environment base address address
ld_target_big_endian              0 # target executable endian-ness, non-zero if big endian
mem.page_count                 1809 # total number of pages allocated
mem.page_mem                 14472k # total size of memory pages allocated
mem.ptab_misses              257044 # total first level page table misses
mem.ptab_accesses        1148873818 # total page table accesses
[...]
dl1.accesses               24529267 # total number of accesses
dl1.hits                   24158415 # total number of hits
dl1.misses                   370852 # total number of misses
dl1.replacements             370340 # total number of replacements
dl1.writebacks               118101 # total number of writebacks
dl1.invalidations                 0 # total number of invalidations
dl1.miss_rate                0.0151 # miss rate (i.e., misses/ref)
dl1.repl_rate                0.0151 # replacement rate (i.e., repls/ref)
dl1.wb_rate                  0.0048 # writeback rate (i.e., wrbks/ref)
dl1.inv_rate                 0.0000 # invalidation rate (i.e., invs/ref)
ul2.accesses                2116607 # total number of accesses
ul2.hits                    1998232 # total number of hits
ul2.misses                   118375 # total number of misses
ul2.replacements             114279 # total number of replacements
ul2.writebacks                47731 # total number of writebacks
ul2.invalidations                 0 # total number of invalidations
ul2.miss_rate                0.0559 # miss rate (i.e., misses/ref)
ul2.repl_rate                0.0540 # replacement rate (i.e., repls/ref)
ul2.wb_rate                  0.0226 # writeback rate (i.e., wrbks/ref)
ul2.inv_rate                 0.0000 # invalidation rate (i.e., invs/ref)
itlb.accesses             127568235 # total number of accesses
itlb.hits                 127568204 # total number of hits
itlb.misses                      31 # total number of misses
itlb.replacements                 0 # total number of replacements
itlb.writebacks                   0 # total number of writebacks
itlb.invalidations                0 # total number of invalidations
itlb.miss_rate               0.0000 # miss rate (i.e., misses/ref)
itlb.repl_rate               0.0000 # replacement rate (i.e., repls/ref)
itlb.wb_rate                 0.0000 # writeback rate (i.e., wrbks/ref)
itlb.inv_rate                0.0000 # invalidation rate (i.e., invs/ref)
dtlb.accesses              24672872 # total number of accesses
dtlb.hits                  24650990 # total number of hits
dtlb.misses                   21882 # total number of misses
dtlb.replacements             21754 # total number of replacements
dtlb.writebacks                   0 # total number of writebacks
dtlb.invalidations                0 # total number of invalidations
dtlb.miss_rate               0.0009 # miss rate (i.e., misses/ref)
dtlb.repl_rate               0.0009 # replacement rate (i.e., repls/ref)
dtlb.wb_rate                 0.0000 # writeback rate (i.e., wrbks/ref)
dtlb.inv_rate                0.0000 # invalidation rate (i.e., invs/ref)
sim_invalid_addrs                 0 # total non-speculative bogus addresses seen (debug var)
ld_text_base           0x0120000000 # program text (code) segment base
ld_text_size                 409600 # program text (code) size in bytes
ld_data_base           0x0140000000 # program initialized data segment base
ld_data_size                  83856 # program init'ed `.data' and uninit'ed `.bss' size in bytes
ld_stack_base          0x011ff9b000 # program stack segment base (highest address in stack)
ld_stack_size                 16384 # program initial stack size
ld_prog_entry          0x0120015520 # program entry point (initial PC)
ld_environ_base        0x011ff97000 # program environment base address address
ld_target_big_endian              0 # target executable endian-ness, non-zero if big endian
mem.page_count                  428 # total number of pages allocated
mem.page_mem                  3424k # total size of memory pages allocated
mem.ptab_misses              251300 # total first level page table misses
mem.ptab_accesses        1030590070 # total page table accesses
mem.ptab_miss_rate           0.0002 # first level page table miss rate

sim-outorder: SimpleScalar/Alpha Tool Set version 3.0 of August, 2003.
Copyright (c) 1994-2003 by Todd M. Austin, Ph.D. and SimpleScalar, LLC.
All Rights Reserved. This version of SimpleScalar is licensed for academic
non-commercial use.  No portion of this work may be used by any commercial
entity, or for any commercial purpose, without the prior written permission
of SimpleScalar, LLC (info@simplescalar.com).

warning: section `.comment' ignored...
sim: command line: sim-outorder -fastfwd 100000000 -max:inst 100000000 -bpred 2lev -bpred:2lev 32 2048 11 0 -mem:width 32 -mem:lat 300 2 ../../exe/vpr.exe net.in arch.in place.out dum.out -nodisp -place_only -init_t 5 -exit_t 0.005 -alpha_t 0.9412 -inner_num 2 

sim: simulation started @ Fri Oct 25 21:57:51 2024, options follow:

sim-outorder: This simulator implements a very detailed out-of-order issue
superscalar processor with a two-level memory system and speculative
execution support.  This simulator is a performance simulator, tracking the
latency of all pipeline operations.

# -config                     # load configuration from a file
# -dumpconfig                 # dump configuration to a file
# -h                    false # print help message    
# -v                    false # verbose operation     
# -d                    false # enable debug message  
# -i                    false # start in Dlite debugger
-seed                       1 # random number generator seed (0 for timer seed)
# -q                    false # initialize and terminate immediately
# -chkpt               <null> # restore EIO trace execution from <fname>
# -redir:sim           <null> # redirect simulator output to file (non-interactive only)
# -redir:prog          <null> # redirect simulated program output to file
-nice                       0 # simulator scheduling priority
-max:inst           100000000 # maximum number of inst's to execute
-fastfwd            100000000 # number of insts skipped before timing starts
# -ptrace              <null> # generate pipetrace, i.e., <fname|stdout|stderr> <range>
-fetch:ifqsize              4 # instruction fetch queue size (in insts)
-fetch:mplat                3 # extra branch mis-prediction latency
-fetch:speed                1 # speed of front-end of machine relative to execution core
-bpred                   2lev # branch predictor type {nottaken|taken|perfect|bimod|2lev|comb}
-bpred:bimod     2048 # bimodal predictor config (<table size>)
-bpred:2lev      32 2048 11 0 # 2-level predictor config (<l1size> <l2size> <hist_size> <xor>)
-bpred:comb      1024 # combining predictor config (<meta_table_size>)
-bpred:ras                  8 # return address stack size (0 for no return stack)
-bpred:btb       512 4 # BTB config (<num_sets> <associativity>)
# -bpred:spec_update       <null> # speculative predictors update in {ID|WB} (default non-spec)
-decode:width               4 # instruction decode B/W (insts/cycle)
-issue:width                4 # instruction issue B/W (insts/cycle)
-issue:inorder          false # run pipeline with in-order issue
-issue:wrongpath         true # issue instructions down wrong execution paths
-commit:width               4 # instruction commit B/W (insts/cycle)
-ruu:size                  16 # register update unit (RUU) size
-lsq:size                   8 # load/store queue (LSQ) size
-cache:dl1       dl1:128:32:4:l # l1 data cache config, i.e., {<config>|none}
-cache:dl1lat               1 # l1 data cache hit latency (in cycles)
-cache:dl2       ul2:1024:64:4:l # l2 data cache config, i.e., {<config>|none}
-cache:dl2lat               6 # l2 data cache hit latency (in cycles)
-cache:il1       il1:512:32:1:l # l1 inst cache config, i.e., {<config>|dl1|dl2|none}
-cache:il1lat               1 # l1 instruction cache hit latency (in cycles)
-cache:il2                dl2 # l2 instruction cache config, i.e., {<config>|dl2|none}
-cache:il2lat               6 # l2 instruction cache hit latency (in cycles)
-cache:flush            false # flush caches on system calls
-cache:icompress        false # convert 64-bit inst addresses to 32-bit inst equivalents
-mem:lat         300 2 # memory access latency (<first_chunk> <inter_chunk>)
-mem:width                 32 # memory access bus width (in bytes)
-tlb:itlb        itlb:16:4096:4:l # instruction TLB config, i.e., {<config>|none}
-tlb:dtlb        dtlb:32:4096:4:l # data TLB config, i.e., {<config>|none}
-tlb:lat                   30 # inst/data TLB miss latency (in cycles)
-res:ialu                   4 # total number of integer ALU's available
-res:imult                  1 # total number of integer multiplier/dividers available
-res:memport                2 # total number of memory system ports available (to CPU)
-res:fpalu                  4 # total number of floating point ALU's available
-res:fpmult                 1 # total number of floating point multiplier/dividers available
# -pcstat              <null> # profile stat(s) against text addr's (mult uses ok)
-bugcompat              false # operate in backward-compatible bugs mode (for testing only)

  Pipetrace range arguments are formatted as follows:

    {{@|#}<start>}:{{@|#|+}<end>}

  Both ends of the range are optional, if neither are specified, the entire
  execution is traced.  Ranges that start with a `@' designate an address
  range to be traced, those that start with an `#' designate a cycle count
  range.  All other range values represent an instruction count range.  The
  second argument, if specified with a `+', indicates a value relative
  to the first argument, e.g., 1000:+100 == 1000:1100.  Program symbols may
  be used in all contexts.

    Examples:   -ptrace FOO.trc #0:#1000
                -ptrace BAR.trc @2000:
                -ptrace BLAH.trc :1500
                -ptrace UXXE.trc :
                -ptrace FOOBAR.trc @main:+278

  Branch predictor configuration examples for 2-level predictor:
    Configurations:   N, M, W, X
      N   # entries in first level (# of shift register(s))
      W   width of shift register(s)
      M   # entries in 2nd level (# of counters, or other FSM)
      X   (yes-1/no-0) xor history and address for 2nd level index
    Sample predictors:
      GAg     : 1, W, 2^W, 0
      GAp     : 1, W, M (M > 2^W), 0
      PAg     : N, W, 2^W, 0
      PAp     : N, W, M (M == 2^(N+W)), 0
      gshare  : 1, W, 2^W, 1
  Predictor `comb' combines a bimodal and a 2-level predictor.

  The cache config parameter <config> has the following format:

    <name>:<nsets>:<bsize>:<assoc>:<repl>

    <name>   - name of the cache being defined
    <nsets>  - number of sets in the cache
    <bsize>  - block size of the cache
    <assoc>  - associativity of the cache
    <repl>   - block replacement strategy, 'l'-LRU, 'f'-FIFO, 'r'-random

    Examples:   -cache:dl1 dl1:4096:32:1:l
                -dtlb dtlb:128:4096:32:r

  Cache levels can be unified by pointing a level of the instruction cache
  hierarchy at the data cache hiearchy using the "dl1" and "dl2" cache
  configuration arguments.  Most sensible combinations are supported, e.g.,

    A unified l2 cache (il2 is pointed at dl2):
      -cache:il1 il1:128:64:1:l -cache:il2 dl2
      -cache:dl1 dl1:256:32:1:l -cache:dl2 ul2:1024:64:2:l

    Or, a fully unified cache hierarchy (il1 pointed at dl1):
      -cache:il1 dl1
      -cache:dl1 ul1:256:32:1:l -cache:dl2 ul2:1024:64:2:l



sim: ** fast forwarding 100000000 insts **
sim: ** starting performance simulation **

sim: ** simulation statistics **
sim_num_insn              100000002 # total number of instructions committed
sim_num_refs               23147907 # total number of loads and stores committed
sim_num_loads              18700740 # total number of loads committed
sim_num_stores         4447167.0000 # total number of stores committed
sim_num_branches           19702631 # total number of branches committed
sim_elapsed_time                 20 # total simulation time in seconds
sim_inst_rate          5000000.1000 # simulation speed (in insts/sec)
sim_total_insn            120828878 # total number of instructions executed
sim_total_refs             27717708 # total number of loads and stores executed
sim_total_loads            22926193 # total number of loads executed
sim_total_stores       4791515.0000 # total number of stores executed
sim_total_branches         23553090 # total number of branches executed
sim_cycle                  88752086 # total simulation time in cycles
sim_IPC                      1.1267 # instructions per cycle
sim_CPI                      0.8875 # cycles per instruction
sim_exec_BW                  1.3614 # total instructions (mis-spec + committed) per cycle
sim_IPB                      5.0755 # instruction per branch
IFQ_count                 266574717 # cumulative IFQ occupancy
IFQ_fcount                 60372699 # cumulative IFQ full count
ifq_occupancy                3.0036 # avg IFQ occupancy (insn's)
ifq_rate                     1.3614 # avg IFQ dispatch rate (insn/cycle)
ifq_latency                  2.2062 # avg IFQ occupant latency (cycle's)
ifq_full                     0.6802 # fraction of time (cycle's) IFQ was full
RUU_count                1019590070 # cumulative RUU occupancy
RUU_fcount                 43617046 # cumulative RUU full count
ruu_occupancy               11.4881 # avg RUU occupancy (insn's)
ruu_rate                     1.3614 # avg RUU dispatch rate (insn/cycle)
ruu_latency                  8.4383 # avg RUU occupant latency (cycle's)
ruu_full                     0.4914 # fraction of time (cycle's) RUU was full
LSQ_count                 268247151 # cumulative LSQ occupancy
LSQ_fcount                  4486673 # cumulative LSQ full count
lsq_occupancy                3.0224 # avg LSQ occupancy (insn's)
lsq_rate                     1.3614 # avg LSQ dispatch rate (insn/cycle)
lsq_latency                  2.2201 # avg LSQ occupant latency (cycle's)
lsq_full                     0.0506 # fraction of time (cycle's) LSQ was full
sim_slip                 1332524086 # total number of slip cycles
avg_sim_slip                13.3252 # the average slip between issue and retirement
bpred_2lev.lookups         24997888 # total number of bpred lookups
bpred_2lev.updates         19702630 # total number of updates
bpred_2lev.addr_hits       17045772 # total number of address-predicted hits
bpred_2lev.dir_hits        17159028 # total number of direction-predicted hits (includes addr-hits)
bpred_2lev.misses           2543602 # total number of misses
bpred_2lev.jr_hits          1296243 # total number of address-predicted hits for JR's
bpred_2lev.jr_seen          1409179 # total number of JR's seen
bpred_2lev.jr_non_ras_hits.PP        13654 # total number of address-predicted hits for non-RAS JR's
bpred_2lev.jr_non_ras_seen.PP        13673 # total number of non-RAS JR's seen
bpred_2lev.bpred_addr_rate    0.8652 # branch address-prediction rate (i.e., addr-hits/updates)
bpred_2lev.bpred_dir_rate    0.8709 # branch direction-prediction rate (i.e., all-hits/updates)
bpred_2lev.bpred_jr_rate    0.9199 # JR address-prediction rate (i.e., JR addr-hits/JRs seen)
bpred_2lev.bpred_jr_non_ras_rate.PP    0.9986 # non-RAS JR addr-pred rate (ie, non-RAS JR hits/JRs seen)
bpred_2lev.retstack_pushes      1666533 # total number of address pushed onto ret-addr stack
bpred_2lev.retstack_pops      1846944 # total number of address popped off of ret-addr stack
bpred_2lev.used_ras.PP      1395506 # total number of RAS predictions used
bpred_2lev.ras_hits.PP      1282589 # total number of RAS hits
bpred_2lev.ras_rate.PP    0.9191 # RAS prediction rate (i.e., RAS hits/used RAS)
il1.accesses              129929724 # total number of accesses
il1.hits                  128311126 # total number of hits
il1.misses                  1618598 # total number of misses
il1.replacements            1618145 # total number of replacements
il1.writebacks                    0 # total number of writebacks
il1.invalidations                 0 # total number of invalidations
il1.miss_rate                0.0125 # miss rate (i.e., misses/ref)
il1.repl_rate                0.0125 # replacement rate (i.e., repls/ref)
il1.wb_rate                  0.0000 # writeback rate (i.e., wrbks/ref)
il1.inv_rate                 0.0000 # invalidation rate (i.e., invs/ref)
dl1.accesses               24583371 # total number of accesses
dl1.hits                   24209828 # total number of hits
dl1.misses                   373543 # total number of misses
dl1.replacements             373031 # total number of replacements
dl1.writebacks               118370 # total number of writebacks
dl1.invalidations                 0 # total number of invalidations
dl1.miss_rate                0.0152 # miss rate (i.e., misses/ref)
dl1.repl_rate                0.0152 # replacement rate (i.e., repls/ref)
dl1.wb_rate                  0.0048 # writeback rate (i.e., wrbks/ref)
dl1.inv_rate                 0.0000 # invalidation rate (i.e., invs/ref)
ul2.accesses                2110511 # total number of accesses
ul2.hits                    1991007 # total number of hits
ul2.misses                   119504 # total number of misses
ul2.replacements             115408 # total number of replacements
ul2.writebacks                47791 # total number of writebacks
ul2.invalidations                 0 # total number of invalidations
ul2.miss_rate                0.0566 # miss rate (i.e., misses/ref)
ul2.repl_rate                0.0547 # replacement rate (i.e., repls/ref)
ul2.wb_rate                  0.0226 # writeback rate (i.e., wrbks/ref)
ul2.inv_rate                 0.0000 # invalidation rate (i.e., invs/ref)
itlb.accesses             129929724 # total number of accesses
itlb.hits                 129929693 # total number of hits
itlb.misses                      31 # total number of misses
itlb.replacements                 0 # total number of replacements
itlb.writebacks                   0 # total number of writebacks
itlb.invalidations                0 # total number of invalidations
itlb.miss_rate               0.0000 # miss rate (i.e., misses/ref)
itlb.repl_rate               0.0000 # replacement rate (i.e., repls/ref)
itlb.wb_rate                 0.0000 # writeback rate (i.e., wrbks/ref)
itlb.inv_rate                0.0000 # invalidation rate (i.e., invs/ref)
dtlb.accesses              24720087 # total number of accesses
dtlb.hits                  24698144 # total number of hits
dtlb.misses                   21943 # total number of misses
dtlb.replacements             21815 # total number of replacements
dtlb.writebacks                   0 # total number of writebacks
dtlb.invalidations                0 # total number of invalidations
dtlb.miss_rate               0.0009 # miss rate (i.e., misses/ref)
dtlb.repl_rate               0.0009 # replacement rate (i.e., repls/ref)
dtlb.wb_rate                 0.0000 # writeback rate (i.e., wrbks/ref)
dtlb.inv_rate                0.0000 # invalidation rate (i.e., invs/ref)
sim_invalid_addrs                 0 # total non-speculative bogus addresses seen (debug var)
ld_text_base           0x0120000000 # program text (code) segment base
ld_text_size                 409600 # program text (code) size in bytes
ld_data_base           0x0140000000 # program initialized data segment base
ld_data_size                  83856 # program init'ed `.data' and uninit'ed `.bss' size in bytes
ld_stack_base          0x011ff9b000 # program stack segment base (highest address in stack)
ld_stack_size                 16384 # program initial stack size
ld_prog_entry          0x0120015520 # program entry point (initial PC)
ld_environ_base        0x011ff97000 # program environment base address address
ld_target_big_endian              0 # target executable endian-ness, non-zero if big endian
mem.page_count                  428 # total number of pages allocated
mem.page_mem                  3424k # total size of memory pages allocated
mem.ptab_misses              250952 # total first level page table misses
mem.ptab_accesses        1036266026 # total page table accesses
mem.ptab_miss_rate           0.0002 # first level page table miss rate

