sim-outorder: SimpleScalar/Alpha Tool Set version 3.0 of August, 2003.
Copyright (c) 1994-2003 by Todd M. Austin, Ph.D. and SimpleScalar, LLC.
All Rights Reserved. This version of SimpleScalar is licensed for academic
non-commercial use.  No portion of this work may be used by any commercial
entity, or for any commercial purpose, without the prior written permission
of SimpleScalar, LLC (info@simplescalar.com).

warning: section `.comment' ignored...
sim: command line: sim-outorder -fastfwd 100000000 -max:inst 100000000 -bpred perfect -mem:width 32 -mem:lat 300 2 ../../exe/ammp.exe 

sim: simulation started @ Fri Oct 25 21:39:56 2024, options follow:

sim-outorder: This simulator implements a very detailed out-of-order issue
superscalar processor with a two-level memory system and speculative
execution support.  This simulator is a performance simulator, tracking the
latency of all pipeline operations.

# -config                     # load configuration from a file
# -dumpconfig                 # dump configuration to a file
# -h                    false # print help message    
# -v                    false # verbose operation     
# -d                    false # enable debug message  
# -i                    false # start in Dlite debugger
-seed                       1 # random number generator seed (0 for timer seed)
# -q                    false # initialize and terminate immediately
# -chkpt               <null> # restore EIO trace execution from <fname>
# -redir:sim           <null> # redirect simulator output to file (non-interactive only)
# -redir:prog          <null> # redirect simulated program output to file
-nice                       0 # simulator scheduling priority
-max:inst           100000000 # maximum number of inst's to execute
-fastfwd            100000000 # number of insts skipped before timing starts
# -ptrace              <null> # generate pipetrace, i.e., <fname|stdout|stderr> <range>
-fetch:ifqsize              4 # instruction fetch queue size (in insts)
-fetch:mplat                3 # extra branch mis-prediction latency
-fetch:speed                1 # speed of front-end of machine relative to execution core
-bpred                perfect # branch predictor type {nottaken|taken|perfect|bimod|2lev|comb}
-bpred:bimod     2048 # bimodal predictor config (<table size>)
-bpred:2lev      1 1024 8 0 # 2-level predictor config (<l1size> <l2size> <hist_size> <xor>)
-bpred:comb      1024 # combining predictor config (<meta_table_size>)
-bpred:ras                  8 # return address stack size (0 for no return stack)
-bpred:btb       512 4 # BTB config (<num_sets> <associativity>)
# -bpred:spec_update       <null> # speculative predictors update in {ID|WB} (default non-spec)
-decode:width               4 # instruction decode B/W (insts/cycle)
-issue:width                4 # instruction issue B/W (insts/cycle)
-issue:inorder          false # run pipeline with in-order issue
-issue:wrongpath         true # issue instructions down wrong execution paths
-commit:width               4 # instruction commit B/W (insts/cycle)
-ruu:size                  16 # register update unit (RUU) size
-lsq:size                   8 # load/store queue (LSQ) size
-cache:dl1       dl1:128:32:4:l # l1 data cache config, i.e., {<config>|none}
-cache:dl1lat               1 # l1 data cache hit latency (in cycles)
-cache:dl2       ul2:1024:64:4:l # l2 data cache config, i.e., {<config>|none}
-cache:dl2lat               6 # l2 data cache hit latency (in cycles)
-cache:il1       il1:512:32:1:l # l1 inst cache config, i.e., {<config>|dl1|dl2|none}
-cache:il1lat               1 # l1 instruction cache hit latency (in cycles)
-cache:il2                dl2 # l2 instruction cache config, i.e., {<config>|dl2|none}
-cache:il2lat               6 # l2 instruction cache hit latency (in cycles)
-cache:flush            false # flush caches on system calls
-cache:icompress        false # convert 64-bit inst addresses to 32-bit inst equivalents
-mem:lat         300 2 # memory access latency (<first_chunk> <inter_chunk>)
-mem:width                 32 # memory access bus width (in bytes)
-tlb:itlb        itlb:16:4096:4:l # instruction TLB config, i.e., {<config>|none}
-tlb:dtlb        dtlb:32:4096:4:l # data TLB config, i.e., {<config>|none}
-tlb:lat                   30 # inst/data TLB miss latency (in cycles)
-res:ialu                   4 # total number of integer ALU's available
-res:imult                  1 # total number of integer multiplier/dividers available
-res:memport                2 # total number of memory system ports available (to CPU)
-res:fpalu                  4 # total number of floating point ALU's available
-res:fpmult                 1 # total number of floating point multiplier/dividers available
# -pcstat              <null> # profile stat(s) against text addr's (mult uses ok)
-bugcompat              false # operate in backward-compatible bugs mode (for testing only)

  Pipetrace range arguments are formatted as follows:

    {{@|#}<start>}:{{@|#|+}<end>}

  Both ends of the range are optional, if neither are specified, the entire
  execution is traced.  Ranges that start with a `@' designate an address
  range to be traced, those that start with an `#' designate a cycle count
  range.  All other range values represent an instruction count range.  The
  second argument, if specified with a `+', indicates a value relative
  to the first argument, e.g., 1000:+100 == 1000:1100.  Program symbols may
  be used in all contexts.

    Examples:   -ptrace FOO.trc #0:#1000
                -ptrace BAR.trc @2000:
                -ptrace BLAH.trc :1500
                -ptrace UXXE.trc :
                -ptrace FOOBAR.trc @main:+278

  Branch predictor configuration examples for 2-level predictor:
    Configurations:   N, M, W, X
      N   # entries in first level (# of shift register(s))
      W   width of shift register(s)
      M   # entries in 2nd level (# of counters, or other FSM)
      X   (yes-1/no-0) xor history and address for 2nd level index
    Sample predictors:
      GAg     : 1, W, 2^W, 0
      GAp     : 1, W, M (M > 2^W), 0
      PAg     : N, W, 2^W, 0
      PAp     : N, W, M (M == 2^(N+W)), 0
      gshare  : 1, W, 2^W, 1
  Predictor `comb' combines a bimodal and a 2-level predictor.

  The cache config parameter <config> has the following format:

    <name>:<nsets>:<bsize>:<assoc>:<repl>

    <name>   - name of the cache being defined
    <nsets>  - number of sets in the cache
    <bsize>  - block size of the cache
    <assoc>  - associativity of the cache
    <repl>   - block replacement strategy, 'l'-LRU, 'f'-FIFO, 'r'-random

    Examples:   -cache:dl1 dl1:4096:32:1:l
                -dtlb dtlb:128:4096:32:r

  Cache levels can be unified by pointing a level of the instruction cache
  hierarchy at the data cache hiearchy using the "dl1" and "dl2" cache
  configuration arguments.  Most sensible combinations are supported, e.g.,

    A unified l2 cache (il2 is pointed at dl2):
      -cache:il1 il1:128:64:1:l -cache:il2 dl2
      -cache:dl1 dl1:256:32:1:l -cache:dl2 ul2:1024:64:2:l

    Or, a fully unified cache hierarchy (il1 pointed at dl1):
      -cache:il1 dl1
      -cache:dl1 ul1:256:32:1:l -cache:dl2 ul2:1024:64:2:l



sim: ** fast forwarding 100000000 insts **
sim: ** starting performance simulation **

sim: ** simulation statistics **
sim_num_insn              100000001 # total number of instructions committed
sim_num_refs               30101334 # total number of loads and stores committed
sim_num_loads              23145477 # total number of loads committed
sim_num_stores         6955857.0000 # total number of stores committed
sim_num_branches           20651019 # total number of branches committed
sim_elapsed_time                 64 # total simulation time in seconds
sim_inst_rate          1562500.0156 # simulation speed (in insts/sec)
sim_total_insn            100000001 # total number of instructions executed
sim_total_refs             30101334 # total number of loads and stores executed
sim_total_loads            23145477 # total number of loads executed
sim_total_stores       6955857.0000 # total number of stores executed
sim_total_branches         20651019 # total number of branches executed
sim_cycle                1028131691 # total simulation time in cycles
sim_IPC                      0.0973 # instructions per cycle
sim_CPI                     10.2813 # cycles per instruction
sim_exec_BW                  0.0973 # total instructions (mis-spec + committed) per cycle
sim_IPB                      4.8424 # instruction per branch
IFQ_count                4089940786 # cumulative IFQ occupancy
IFQ_fcount               1022369653 # cumulative IFQ full count
ifq_occupancy                3.9780 # avg IFQ occupancy (insn's)
ifq_rate                     0.0973 # avg IFQ dispatch rate (insn/cycle)
ifq_latency                 40.8994 # avg IFQ occupant latency (cycle's)
ifq_full                     0.9944 # fraction of time (cycle's) IFQ was full
RUU_count               16328113863 # cumulative RUU occupancy
RUU_fcount               1003487453 # cumulative RUU full count
ruu_occupancy               15.8813 # avg RUU occupancy (insn's)
ruu_rate                     0.0973 # avg RUU dispatch rate (insn/cycle)
ruu_latency                163.2811 # avg RUU occupant latency (cycle's)
ruu_full                     0.9760 # fraction of time (cycle's) RUU was full
LSQ_count                8040055333 # cumulative LSQ occupancy
LSQ_fcount                985726184 # cumulative LSQ full count
lsq_occupancy                7.8201 # avg LSQ occupancy (insn's)
lsq_rate                     0.0973 # avg LSQ dispatch rate (insn/cycle)
lsq_latency                 80.4006 # avg LSQ occupant latency (cycle's)
lsq_full                     0.9588 # fraction of time (cycle's) LSQ was full
sim_slip                24498270442 # total number of slip cycles
avg_sim_slip               244.9827 # the average slip between issue and retirement
il1.accesses              114574403 # total number of accesses
il1.hits                  114002070 # total number of hits
il1.misses                   572333 # total number of misses
il1.replacements             572018 # total number of replacements
il1.writebacks                    0 # total number of writebacks
il1.invalidations                 0 # total number of invalidations
il1.miss_rate                0.0050 # miss rate (i.e., misses/ref)
il1.repl_rate                0.0050 # replacement rate (i.e., repls/ref)
il1.wb_rate                  0.0000 # writeback rate (i.e., wrbks/ref)
il1.inv_rate                 0.0000 # invalidation rate (i.e., invs/ref)
dl1.accesses               26691416 # total number of accesses
dl1.hits                   23335089 # total number of hits
dl1.misses                  3356327 # total number of misses
dl1.replacements            3355815 # total number of replacements
dl1.writebacks                43869 # total number of writebacks
dl1.invalidations                 0 # total number of invalidations
dl1.miss_rate                0.1257 # miss rate (i.e., misses/ref)
dl1.repl_rate                0.1257 # replacement rate (i.e., repls/ref)
dl1.wb_rate                  0.0016 # writeback rate (i.e., wrbks/ref)
dl1.inv_rate                 0.0000 # invalidation rate (i.e., invs/ref)
ul2.accesses                3972529 # total number of accesses
ul2.hits                     630702 # total number of hits
ul2.misses                  3341827 # total number of misses
ul2.replacements            3338456 # total number of replacements
ul2.writebacks                27461 # total number of writebacks
ul2.invalidations                 0 # total number of invalidations
ul2.miss_rate                0.8412 # miss rate (i.e., misses/ref)
ul2.repl_rate                0.8404 # replacement rate (i.e., repls/ref)
ul2.wb_rate                  0.0069 # writeback rate (i.e., wrbks/ref)
ul2.inv_rate                 0.0000 # invalidation rate (i.e., invs/ref)
itlb.accesses             114574403 # total number of accesses
itlb.hits                 114574383 # total number of hits
itlb.misses                      20 # total number of misses
itlb.replacements                 0 # total number of replacements
itlb.writebacks                   0 # total number of writebacks
itlb.invalidations                0 # total number of invalidations
itlb.miss_rate               0.0000 # miss rate (i.e., misses/ref)
itlb.repl_rate               0.0000 # replacement rate (i.e., repls/ref)
itlb.wb_rate                 0.0000 # writeback rate (i.e., wrbks/ref)
itlb.inv_rate                0.0000 # invalidation rate (i.e., invs/ref)
dtlb.accesses              30101331 # total number of accesses
dtlb.hits                  28032794 # total number of hits
dtlb.misses                 2068537 # total number of misses
dtlb.replacements           2068409 # total number of replacements
dtlb.writebacks                   0 # total number of writebacks
dtlb.invalidations                0 # total number of invalidations
dtlb.miss_rate               0.0687 # miss rate (i.e., misses/ref)
dtlb.repl_rate               0.0687 # replacement rate (i.e., repls/ref)
dtlb.wb_rate                 0.0000 # writeback rate (i.e., wrbks/ref)
dtlb.inv_rate                0.0000 # invalidation rate (i.e., invs/ref)
sim_invalid_addrs                 0 # total non-speculative bogus addresses seen (debug var)
ld_text_base           0x0120000000 # program text (code) segment base
ld_text_size                 368640 # program text (code) size in bytes
ld_data_base           0x0140000000 # program initialized data segment base
ld_data_size                  83584 # program init'ed `.data' and uninit'ed `.bss' size in bytes
ld_stack_base          0x011ff9b000 # program stack segment base (highest address in stack)
ld_stack_size                 16384 # program initial stack size
ld_prog_entry          0x0120013040 # program entry point (initial PC)
ld_environ_base        0x011ff97000 # program environment base address address
ld_target_big_endian              0 # target executable endian-ness, non-zero if big endian
mem.page_count                 1809 # total number of pages allocated
mem.page_mem                 14472k # total size of memory pages allocated
mem.ptab_misses              251016 # total first level page table misses
mem.ptab_accesses        1153384324 # total page table accesses
mem.ptab_miss_rate           0.0002 # first level page table miss rate

sim-outorder: SimpleScalar/Alpha Tool Set version 3.0 of August, 2003.
Copyright (c) 1994-2003 by Todd M. Austin, Ph.D. and SimpleScalar, LLC.
All Rights Reserved. This version of SimpleScalar is licensed for academic
non-commercial use.  No portion of this work may be used by any commercial
entity, or for any commercial purpose, without the prior written permission
of SimpleScalar, LLC (info@simplescalar.com).

warning: section `.comment' ignored...
sim: command line: sim-outorder -fastfwd 100000000 -max:inst 100000000 -bpred perfect -mem:width 32 -mem:lat 300 2 ../../exe/applu.exe 

sim: simulation started @ Fri Oct 25 21:41:00 2024, options follow:

sim-outorder: This simulator implements a very detailed out-of-order issue
superscalar processor with a two-level memory system and speculative
execution support.  This simulator is a performance simulator, tracking the
latency of all pipeline operations.

# -config                     # load configuration from a file
# -dumpconfig                 # dump configuration to a file
# -h                    false # print help message    
# -v                    false # verbose operation     
# -d                    false # enable debug message  
# -i                    false # start in Dlite debugger
-seed                       1 # random number generator seed (0 for timer seed)
# -q                    false # initialize and terminate immediately
# -chkpt               <null> # restore EIO trace execution from <fname>
# -redir:sim           <null> # redirect simulator output to file (non-interactive only)
# -redir:prog          <null> # redirect simulated program output to file
-nice                       0 # simulator scheduling priority
-max:inst           100000000 # maximum number of inst's to execute
-fastfwd            100000000 # number of insts skipped before timing starts
# -ptrace              <null> # generate pipetrace, i.e., <fname|stdout|stderr> <range>
-fetch:ifqsize              4 # instruction fetch queue size (in insts)
-fetch:mplat                3 # extra branch mis-prediction latency
-fetch:speed                1 # speed of front-end of machine relative to execution core
-bpred                perfect # branch predictor type {nottaken|taken|perfect|bimod|2lev|comb}
-bpred:bimod     2048 # bimodal predictor config (<table size>)
-bpred:2lev      1 1024 8 0 # 2-level predictor config (<l1size> <l2size> <hist_size> <xor>)
-bpred:comb      1024 # combining predictor config (<meta_table_size>)
-bpred:ras                  8 # return address stack size (0 for no return stack)
-bpred:btb       512 4 # BTB config (<num_sets> <associativity>)
# -bpred:spec_update       <null> # speculative predictors update in {ID|WB} (default non-spec)
-decode:width               4 # instruction decode B/W (insts/cycle)
-issue:width                4 # instruction issue B/W (insts/cycle)
-issue:inorder          false # run pipeline with in-order issue
-issue:wrongpath         true # issue instructions down wrong execution paths
-commit:width               4 # instruction commit B/W (insts/cycle)
-ruu:size                  16 # register update unit (RUU) size
-lsq:size                   8 # load/store queue (LSQ) size
-cache:dl1       dl1:128:32:4:l # l1 data cache config, i.e., {<config>|none}
-cache:dl1lat               1 # l1 data cache hit latency (in cycles)
-cache:dl2       ul2:1024:64:4:l # l2 data cache config, i.e., {<config>|none}
-cache:dl2lat               6 # l2 data cache hit latency (in cycles)
-cache:il1       il1:512:32:1:l # l1 inst cache config, i.e., {<config>|dl1|dl2|none}
-cache:il1lat               1 # l1 instruction cache hit latency (in cycles)
-cache:il2                dl2 # l2 instruction cache config, i.e., {<config>|dl2|none}
-cache:il2lat               6 # l2 instruction cache hit latency (in cycles)
-cache:flush            false # flush caches on system calls
-cache:icompress        false # convert 64-bit inst addresses to 32-bit inst equivalents
-mem:lat         300 2 # memory access latency (<first_chunk> <inter_chunk>)
-mem:width                 32 # memory access bus width (in bytes)
-tlb:itlb        itlb:16:4096:4:l # instruction TLB config, i.e., {<config>|none}
-tlb:dtlb        dtlb:32:4096:4:l # data TLB config, i.e., {<config>|none}
-tlb:lat                   30 # inst/data TLB miss latency (in cycles)
-res:ialu                   4 # total number of integer ALU's available
-res:imult                  1 # total number of integer multiplier/dividers available
-res:memport                2 # total number of memory system ports available (to CPU)
-res:fpalu                  4 # total number of floating point ALU's available
-res:fpmult                 1 # total number of floating point multiplier/dividers available
# -pcstat              <null> # profile stat(s) against text addr's (mult uses ok)
-bugcompat              false # operate in backward-compatible bugs mode (for testing only)

  Pipetrace range arguments are formatted as follows:

    {{@|#}<start>}:{{@|#|+}<end>}

  Both ends of the range are optional, if neither are specified, the entire
  execution is traced.  Ranges that start with a `@' designate an address
  range to be traced, those that start with an `#' designate a cycle count
  range.  All other range values represent an instruction count range.  The
  second argument, if specified with a `+', indicates a value relative
  to the first argument, e.g., 1000:+100 == 1000:1100.  Program symbols may
  be used in all contexts.

    Examples:   -ptrace FOO.trc #0:#1000
                -ptrace BAR.trc @2000:
                -ptrace BLAH.trc :1500
                -ptrace UXXE.trc :
                -ptrace FOOBAR.trc @main:+278

  Branch predictor configuration examples for 2-level predictor:
    Configurations:   N, M, W, X
      N   # entries in first level (# of shift register(s))
      W   width of shift register(s)
      M   # entries in 2nd level (# of counters, or other FSM)
      X   (yes-1/no-0) xor history and address for 2nd level index
    Sample predictors:
      GAg     : 1, W, 2^W, 0
      GAp     : 1, W, M (M > 2^W), 0
      PAg     : N, W, 2^W, 0
      PAp     : N, W, M (M == 2^(N+W)), 0
      gshare  : 1, W, 2^W, 1
  Predictor `comb' combines a bimodal and a 2-level predictor.

  The cache config parameter <config> has the following format:

    <name>:<nsets>:<bsize>:<assoc>:<repl>

    <name>   - name of the cache being defined
    <nsets>  - number of sets in the cache
    <bsize>  - block size of the cache
    <assoc>  - associativity of the cache
    <repl>   - block replacement strategy, 'l'-LRU, 'f'-FIFO, 'r'-random

    Examples:   -cache:dl1 dl1:4096:32:1:l
                -dtlb dtlb:128:4096:32:r

  Cache levels can be unified by pointing a level of the instruction cache
  hierarchy at the data cache hiearchy using the "dl1" and "dl2" cache
  configuration arguments.  Most sensible combinations are supported, e.g.,

    A unified l2 cache (il2 is pointed at dl2):
      -cache:il1 il1:128:64:1:l -cache:il2 dl2
      -cache:dl1 dl1:256:32:1:l -cache:dl2 ul2:1024:64:2:l

    Or, a fully unified cache hierarchy (il1 pointed at dl1):
      -cache:il1 dl1
      -cache:dl1 ul1:256:32:1:l -cache:dl2 ul2:1024:64:2:l



sim: ** fast forwarding 100000000 insts **
warning: partially supported sigaction() call...
sim: ** starting performance simulation **

sim: ** simulation statistics **
sim_num_insn              100000000 # total number of instructions committed
sim_num_refs               24753981 # total number of loads and stores committed
sim_num_loads              20943495 # total number of loads committed
sim_num_stores         3810486.0000 # total number of stores committed
sim_num_branches            2600444 # total number of branches committed
sim_elapsed_time                 11 # total simulation time in seconds
sim_inst_rate          9090909.0909 # simulation speed (in insts/sec)
sim_total_insn            100000000 # total number of instructions executed
sim_total_refs             24753981 # total number of loads and stores executed
sim_total_loads            20943495 # total number of loads executed
sim_total_stores       3810486.0000 # total number of stores executed
sim_total_branches          2600444 # total number of branches executed
sim_cycle                  94789463 # total simulation time in cycles
sim_IPC                      1.0550 # instructions per cycle
sim_CPI                      0.9479 # cycles per instruction
sim_exec_BW                  1.0550 # total instructions (mis-spec + committed) per cycle
sim_IPB                     38.4550 # instruction per branch
IFQ_count                 379104918 # cumulative IFQ occupancy
IFQ_fcount                 94776219 # cumulative IFQ full count
ifq_occupancy                3.9994 # avg IFQ occupancy (insn's)
ifq_rate                     1.0550 # avg IFQ dispatch rate (insn/cycle)
ifq_latency                  3.7910 # avg IFQ occupant latency (cycle's)
ifq_full                     0.9999 # fraction of time (cycle's) IFQ was full
RUU_count                1475847220 # cumulative RUU occupancy
RUU_fcount                 81672839 # cumulative RUU full count
ruu_occupancy               15.5697 # avg RUU occupancy (insn's)
ruu_rate                     1.0550 # avg RUU dispatch rate (insn/cycle)
ruu_latency                 14.7585 # avg RUU occupant latency (cycle's)
ruu_full                     0.8616 # fraction of time (cycle's) RUU was full
LSQ_count                 361045676 # cumulative LSQ occupancy
LSQ_fcount                  7553832 # cumulative LSQ full count
lsq_occupancy                3.8089 # avg LSQ occupancy (insn's)
lsq_rate                     1.0550 # avg LSQ dispatch rate (insn/cycle)
lsq_latency                  3.6105 # avg LSQ occupant latency (cycle's)
lsq_full                     0.0797 # fraction of time (cycle's) LSQ was full
sim_slip                 1961646769 # total number of slip cycles
avg_sim_slip                19.6165 # the average slip between issue and retirement
il1.accesses              105542270 # total number of accesses
il1.hits                  105542184 # total number of hits
il1.misses                       86 # total number of misses
il1.replacements                  0 # total number of replacements
il1.writebacks                    0 # total number of writebacks
il1.invalidations                 0 # total number of invalidations
il1.miss_rate                0.0000 # miss rate (i.e., misses/ref)
il1.repl_rate                0.0000 # replacement rate (i.e., repls/ref)
il1.wb_rate                  0.0000 # writeback rate (i.e., wrbks/ref)
il1.inv_rate                 0.0000 # invalidation rate (i.e., invs/ref)
dl1.accesses               24753939 # total number of accesses
dl1.hits                   24588192 # total number of hits
dl1.misses                   165747 # total number of misses
dl1.replacements             165235 # total number of replacements
dl1.writebacks               164862 # total number of writebacks
dl1.invalidations                 0 # total number of invalidations
dl1.miss_rate                0.0067 # miss rate (i.e., misses/ref)
dl1.repl_rate                0.0067 # replacement rate (i.e., repls/ref)
dl1.wb_rate                  0.0067 # writeback rate (i.e., wrbks/ref)
dl1.inv_rate                 0.0000 # invalidation rate (i.e., invs/ref)
ul2.accesses                 330695 # total number of accesses
ul2.hits                     246844 # total number of hits
ul2.misses                    83851 # total number of misses
ul2.replacements              79755 # total number of replacements
ul2.writebacks                79618 # total number of writebacks
ul2.invalidations                 0 # total number of invalidations
ul2.miss_rate                0.2536 # miss rate (i.e., misses/ref)
ul2.repl_rate                0.2412 # replacement rate (i.e., repls/ref)
ul2.wb_rate                  0.2408 # writeback rate (i.e., wrbks/ref)
ul2.inv_rate                 0.0000 # invalidation rate (i.e., invs/ref)
itlb.accesses             105542270 # total number of accesses
itlb.hits                 105542268 # total number of hits
itlb.misses                       2 # total number of misses
itlb.replacements                 0 # total number of replacements
itlb.writebacks                   0 # total number of writebacks
itlb.invalidations                0 # total number of invalidations
itlb.miss_rate               0.0000 # miss rate (i.e., misses/ref)
itlb.repl_rate               0.0000 # replacement rate (i.e., repls/ref)
itlb.wb_rate                 0.0000 # writeback rate (i.e., wrbks/ref)
itlb.inv_rate                0.0000 # invalidation rate (i.e., invs/ref)
dtlb.accesses              24753978 # total number of accesses
dtlb.hits                  24752626 # total number of hits
dtlb.misses                    1352 # total number of misses
dtlb.replacements              1224 # total number of replacements
dtlb.writebacks                   0 # total number of writebacks
dtlb.invalidations                0 # total number of invalidations
dtlb.miss_rate               0.0001 # miss rate (i.e., misses/ref)
dtlb.repl_rate               0.0000 # replacement rate (i.e., repls/ref)
dtlb.wb_rate                 0.0000 # writeback rate (i.e., wrbks/ref)
dtlb.inv_rate                0.0000 # invalidation rate (i.e., invs/ref)
sim_invalid_addrs                 0 # total non-speculative bogus addresses seen (debug var)
ld_text_base           0x0120000000 # program text (code) segment base
ld_text_size                 286720 # program text (code) size in bytes
ld_data_base           0x0140000000 # program initialized data segment base
ld_data_size              198820592 # program init'ed `.data' and uninit'ed `.bss' size in bytes
ld_stack_base          0x011ff9b000 # program stack segment base (highest address in stack)
ld_stack_size                 16384 # program initial stack size
ld_prog_entry          0x012000ac40 # program entry point (initial PC)
ld_environ_base        0x011ff97000 # program environment base address address
ld_target_big_endian              0 # target executable endian-ness, non-zero if big endian
mem.page_count                 2162 # total number of pages allocated
mem.page_mem                 17296k # total size of memory pages allocated
mem.ptab_misses                2541 # total first level page table misses
mem.ptab_accesses        1121119446 # total page table accesses
mem.ptab_miss_rate           0.0000 # first level page table miss rate

sim-outorder: SimpleScalar/Alpha Tool Set version 3.0 of August, 2003.
Copyright (c) 1994-2003 by Todd M. Austin, Ph.D. and SimpleScalar, LLC.
All Rights Reserved. This version of SimpleScalar is licensed for academic
non-commercial use.  No portion of this work may be used by any commercial
entity, or for any commercial purpose, without the prior written permission
of SimpleScalar, LLC (info@simplescalar.com).

warning: section `.comment' ignored...
sim: command line: sim-outorder -fastfwd 100000000 -max:inst 100000000 -bpred perfect -mem:width 32 -mem:lat 300 2 ../../exe/eon.exe chair.control.cook chair.camera chair.surfaces chair.cook.ppm ppm pixels_out.cook 

sim: simulation started @ Fri Oct 25 21:41:12 2024, options follow:

sim-outorder: This simulator implements a very detailed out-of-order issue
superscalar processor with a two-level memory system and speculative
execution support.  This simulator is a performance simulator, tracking the
latency of all pipeline operations.

# -config                     # load configuration from a file
# -dumpconfig                 # dump configuration to a file
# -h                    false # print help message    
# -v                    false # verbose operation     
# -d                    false # enable debug message  
# -i                    false # start in Dlite debugger
-seed                       1 # random number generator seed (0 for timer seed)
# -q                    false # initialize and terminate immediately
# -chkpt               <null> # restore EIO trace execution from <fname>
# -redir:sim           <null> # redirect simulator output to file (non-interactive only)
# -redir:prog          <null> # redirect simulated program output to file
-nice                       0 # simulator scheduling priority
-max:inst           100000000 # maximum number of inst's to execute
-fastfwd            100000000 # number of insts skipped before timing starts
# -ptrace              <null> # generate pipetrace, i.e., <fname|stdout|stderr> <range>
-fetch:ifqsize              4 # instruction fetch queue size (in insts)
-fetch:mplat                3 # extra branch mis-prediction latency
-fetch:speed                1 # speed of front-end of machine relative to execution core
-bpred                perfect # branch predictor type {nottaken|taken|perfect|bimod|2lev|comb}
-bpred:bimod     2048 # bimodal predictor config (<table size>)
-bpred:2lev      1 1024 8 0 # 2-level predictor config (<l1size> <l2size> <hist_size> <xor>)
-bpred:comb      1024 # combining predictor config (<meta_table_size>)
-bpred:ras                  8 # return address stack size (0 for no return stack)
-bpred:btb       512 4 # BTB config (<num_sets> <associativity>)
# -bpred:spec_update       <null> # speculative predictors update in {ID|WB} (default non-spec)
-decode:width               4 # instruction decode B/W (insts/cycle)
-issue:width                4 # instruction issue B/W (insts/cycle)
-issue:inorder          false # run pipeline with in-order issue
-issue:wrongpath         true # issue instructions down wrong execution paths
-commit:width               4 # instruction commit B/W (insts/cycle)
-ruu:size                  16 # register update unit (RUU) size
-lsq:size                   8 # load/store queue (LSQ) size
-cache:dl1       dl1:128:32:4:l # l1 data cache config, i.e., {<config>|none}
-cache:dl1lat               1 # l1 data cache hit latency (in cycles)
-cache:dl2       ul2:1024:64:4:l # l2 data cache config, i.e., {<config>|none}
-cache:dl2lat               6 # l2 data cache hit latency (in cycles)
-cache:il1       il1:512:32:1:l # l1 inst cache config, i.e., {<config>|dl1|dl2|none}
-cache:il1lat               1 # l1 instruction cache hit latency (in cycles)
-cache:il2                dl2 # l2 instruction cache config, i.e., {<config>|dl2|none}
-cache:il2lat               6 # l2 instruction cache hit latency (in cycles)
-cache:flush            false # flush caches on system calls
-cache:icompress        false # convert 64-bit inst addresses to 32-bit inst equivalents
-mem:lat         300 2 # memory access latency (<first_chunk> <inter_chunk>)
-mem:width                 32 # memory access bus width (in bytes)
-tlb:itlb        itlb:16:4096:4:l # instruction TLB config, i.e., {<config>|none}
-tlb:dtlb        dtlb:32:4096:4:l # data TLB config, i.e., {<config>|none}
-tlb:lat                   30 # inst/data TLB miss latency (in cycles)
-res:ialu                   4 # total number of integer ALU's available
-res:imult                  1 # total number of integer multiplier/dividers available
-res:memport                2 # total number of memory system ports available (to CPU)
-res:fpalu                  4 # total number of floating point ALU's available
-res:fpmult                 1 # total number of floating point multiplier/dividers available
# -pcstat              <null> # profile stat(s) against text addr's (mult uses ok)
-bugcompat              false # operate in backward-compatible bugs mode (for testing only)

  Pipetrace range arguments are formatted as follows:

    {{@|#}<start>}:{{@|#|+}<end>}

  Both ends of the range are optional, if neither are specified, the entire
  execution is traced.  Ranges that start with a `@' designate an address
  range to be traced, those that start with an `#' designate a cycle count
  range.  All other range values represent an instruction count range.  The
  second argument, if specified with a `+', indicates a value relative
  to the first argument, e.g., 1000:+100 == 1000:1100.  Program symbols may
  be used in all contexts.

    Examples:   -ptrace FOO.trc #0:#1000
                -ptrace BAR.trc @2000:
                -ptrace BLAH.trc :1500
                -ptrace UXXE.trc :
                -ptrace FOOBAR.trc @main:+278

  Branch predictor configuration examples for 2-level predictor:
    Configurations:   N, M, W, X
      N   # entries in first level (# of shift register(s))
      W   width of shift register(s)
      M   # entries in 2nd level (# of counters, or other FSM)
      X   (yes-1/no-0) xor history and address for 2nd level index
    Sample predictors:
      GAg     : 1, W, 2^W, 0
      GAp     : 1, W, M (M > 2^W), 0
      PAg     : N, W, 2^W, 0
      PAp     : N, W, M (M == 2^(N+W)), 0
      gshare  : 1, W, 2^W, 1
  Predictor `comb' combines a bimodal and a 2-level predictor.

  The cache config parameter <config> has the following format:

    <name>:<nsets>:<bsize>:<assoc>:<repl>

    <name>   - name of the cache being defined
    <nsets>  - number of sets in the cache
    <bsize>  - block size of the cache
    <assoc>  - associativity of the cache
    <repl>   - block replacement strategy, 'l'-LRU, 'f'-FIFO, 'r'-random

    Examples:   -cache:dl1 dl1:4096:32:1:l
                -dtlb dtlb:128:4096:32:r

  Cache levels can be unified by pointing a level of the instruction cache
  hierarchy at the data cache hiearchy using the "dl1" and "dl2" cache
  configuration arguments.  Most sensible combinations are supported, e.g.,

    A unified l2 cache (il2 is pointed at dl2):
      -cache:il1 il1:128:64:1:l -cache:il2 dl2
      -cache:dl1 dl1:256:32:1:l -cache:dl2 ul2:1024:64:2:l

    Or, a fully unified cache hierarchy (il1 pointed at dl1):
      -cache:il1 dl1
      -cache:dl1 ul1:256:32:1:l -cache:dl2 ul2:1024:64:2:l



sim: ** fast forwarding 100000000 insts **
getting pixel output filename pixels_out.cook
opening control file chair.control.cook
opening camera file chair.camera
opening surfaces file chair.surfaces
reading data
processing 8parts
Grid measure is 6 by 3.0001 by 6
cell dimension is 0.863065
Creating grid for list of length 21
Grid size = 7 by 4 by 7
Total occupancy = 236
reading control stream
reading camera stream
Writing to chair.cook.ppm
calculating 150 by 150 image with 400 samples
sim: ** starting performance simulation **

sim: ** simulation statistics **
sim_num_insn              100000000 # total number of instructions committed
sim_num_refs               45809995 # total number of loads and stores committed
sim_num_loads              26441675 # total number of loads committed
sim_num_stores         19368320.0000 # total number of stores committed
sim_num_branches           10337355 # total number of branches committed
sim_elapsed_time                 22 # total simulation time in seconds
sim_inst_rate          4545454.5455 # simulation speed (in insts/sec)
sim_total_insn            100000000 # total number of instructions executed
sim_total_refs             45809995 # total number of loads and stores executed
sim_total_loads            26441675 # total number of loads executed
sim_total_stores       19368320.0000 # total number of stores executed
sim_total_branches         10337355 # total number of branches executed
sim_cycle                  72152494 # total simulation time in cycles
sim_IPC                      1.3860 # instructions per cycle
sim_CPI                      0.7215 # cycles per instruction
sim_exec_BW                  1.3860 # total instructions (mis-spec + committed) per cycle
sim_IPB                      9.6737 # instruction per branch
IFQ_count                 170798378 # cumulative IFQ occupancy
IFQ_fcount                 41949290 # cumulative IFQ full count
ifq_occupancy                2.3672 # avg IFQ occupancy (insn's)
ifq_rate                     1.3860 # avg IFQ dispatch rate (insn/cycle)
ifq_latency                  1.7080 # avg IFQ occupant latency (cycle's)
ifq_full                     0.5814 # fraction of time (cycle's) IFQ was full
RUU_count                 615751211 # cumulative RUU occupancy
RUU_fcount                 10558405 # cumulative RUU full count
ruu_occupancy                8.5340 # avg RUU occupancy (insn's)
ruu_rate                     1.3860 # avg RUU dispatch rate (insn/cycle)
ruu_latency                  6.1575 # avg RUU occupant latency (cycle's)
ruu_full                     0.1463 # fraction of time (cycle's) RUU was full
LSQ_count                 281300148 # cumulative LSQ occupancy
LSQ_fcount                 14624714 # cumulative LSQ full count
lsq_occupancy                3.8987 # avg LSQ occupancy (insn's)
lsq_rate                     1.3860 # avg LSQ dispatch rate (insn/cycle)
lsq_latency                  2.8130 # avg LSQ occupant latency (cycle's)
lsq_full                     0.2027 # fraction of time (cycle's) LSQ was full
sim_slip                 1042861247 # total number of slip cycles
avg_sim_slip                10.4286 # the average slip between issue and retirement
il1.accesses              119058514 # total number of accesses
il1.hits                  114052076 # total number of hits
il1.misses                  5006438 # total number of misses
il1.replacements            5006037 # total number of replacements
il1.writebacks                    0 # total number of writebacks
il1.invalidations                 0 # total number of invalidations
il1.miss_rate                0.0421 # miss rate (i.e., misses/ref)
il1.repl_rate                0.0420 # replacement rate (i.e., repls/ref)
il1.wb_rate                  0.0000 # writeback rate (i.e., wrbks/ref)
il1.inv_rate                 0.0000 # invalidation rate (i.e., invs/ref)
dl1.accesses               45336070 # total number of accesses
dl1.hits                   45221087 # total number of hits
dl1.misses                   114983 # total number of misses
dl1.replacements             114471 # total number of replacements
dl1.writebacks                42582 # total number of writebacks
dl1.invalidations                 0 # total number of invalidations
dl1.miss_rate                0.0025 # miss rate (i.e., misses/ref)
dl1.repl_rate                0.0025 # replacement rate (i.e., repls/ref)
dl1.wb_rate                  0.0009 # writeback rate (i.e., wrbks/ref)
dl1.inv_rate                 0.0000 # invalidation rate (i.e., invs/ref)
ul2.accesses                5164003 # total number of accesses
ul2.hits                    5162302 # total number of hits
ul2.misses                     1701 # total number of misses
ul2.replacements                362 # total number of replacements
ul2.writebacks                   67 # total number of writebacks
ul2.invalidations                 0 # total number of invalidations
ul2.miss_rate                0.0003 # miss rate (i.e., misses/ref)
ul2.repl_rate                0.0001 # replacement rate (i.e., repls/ref)
ul2.wb_rate                  0.0000 # writeback rate (i.e., wrbks/ref)
ul2.inv_rate                 0.0000 # invalidation rate (i.e., invs/ref)
itlb.accesses             119058514 # total number of accesses
itlb.hits                 119058480 # total number of hits
itlb.misses                      34 # total number of misses
itlb.replacements                 0 # total number of replacements
itlb.writebacks                   0 # total number of writebacks
itlb.invalidations                0 # total number of invalidations
itlb.miss_rate               0.0000 # miss rate (i.e., misses/ref)
itlb.repl_rate               0.0000 # replacement rate (i.e., repls/ref)
itlb.wb_rate                 0.0000 # writeback rate (i.e., wrbks/ref)
itlb.inv_rate                0.0000 # invalidation rate (i.e., invs/ref)
dtlb.accesses              45809993 # total number of accesses
dtlb.hits                  45809943 # total number of hits
dtlb.misses                      50 # total number of misses
dtlb.replacements                 0 # total number of replacements
dtlb.writebacks                   0 # total number of writebacks
dtlb.invalidations                0 # total number of invalidations
dtlb.miss_rate               0.0000 # miss rate (i.e., misses/ref)
dtlb.repl_rate               0.0000 # replacement rate (i.e., repls/ref)
dtlb.wb_rate                 0.0000 # writeback rate (i.e., wrbks/ref)
dtlb.inv_rate                0.0000 # invalidation rate (i.e., invs/ref)
sim_invalid_addrs                 0 # total non-speculative bogus addresses seen (debug var)
ld_text_base           0x0120000000 # program text (code) segment base
ld_text_size                 901120 # program text (code) size in bytes
ld_data_base           0x0140000000 # program initialized data segment base
ld_data_size                 330704 # program init'ed `.data' and uninit'ed `.bss' size in bytes
ld_stack_base          0x011ff9b000 # program stack segment base (highest address in stack)
ld_stack_size                 16384 # program initial stack size
ld_prog_entry          0x0120020a30 # program entry point (initial PC)
ld_environ_base        0x011ff97000 # program environment base address address
ld_target_big_endian              0 # target executable endian-ness, non-zero if big endian
mem.page_count                  171 # total number of pages allocated
mem.page_mem                  1368k # total size of memory pages allocated
mem.ptab_misses              201187 # total first level page table misses
mem.ptab_accesses        1710816242 # total page table accesses
mem.ptab_miss_rate           0.0001 # first level page table miss rate

sim-outorder: SimpleScalar/Alpha Tool Set version 3.0 of August, 2003.
Copyright (c) 1994-2003 by Todd M. Austin, Ph.D. and SimpleScalar, LLC.
All Rights Reserved. This version of SimpleScalar is licensed for academic
non-commercial use.  No portion of this work may be used by any commercial
entity, or for any commercial purpose, without the prior written permission
of SimpleScalar, LLC (info@simplescalar.com).

warning: section `.comment' ignored...
sim: command line: sim-outorder -fastfwd 100000000 -max:inst 100000000 -bpred perfect -mem:width 32 -mem:lat 300 2 ../../exe/equake.exe 

sim: simulation started @ Fri Oct 25 21:41:34 2024, options follow:

sim-outorder: This simulator implements a very detailed out-of-order issue
superscalar processor with a two-level memory system and speculative
execution support.  This simulator is a performance simulator, tracking the
latency of all pipeline operations.

# -config                     # load configuration from a file
# -dumpconfig                 # dump configuration to a file
# -h                    false # print help message    
# -v                    false # verbose operation     
# -d                    false # enable debug message  
# -i                    false # start in Dlite debugger
-seed                       1 # random number generator seed (0 for timer seed)
# -q                    false # initialize and terminate immediately
# -chkpt               <null> # restore EIO trace execution from <fname>
# -redir:sim           <null> # redirect simulator output to file (non-interactive only)
# -redir:prog          <null> # redirect simulated program output to file
-nice                       0 # simulator scheduling priority
-max:inst           100000000 # maximum number of inst's to execute
-fastfwd            100000000 # number of insts skipped before timing starts
# -ptrace              <null> # generate pipetrace, i.e., <fname|stdout|stderr> <range>
-fetch:ifqsize              4 # instruction fetch queue size (in insts)
-fetch:mplat                3 # extra branch mis-prediction latency
-fetch:speed                1 # speed of front-end of machine relative to execution core
-bpred                perfect # branch predictor type {nottaken|taken|perfect|bimod|2lev|comb}
-bpred:bimod     2048 # bimodal predictor config (<table size>)
-bpred:2lev      1 1024 8 0 # 2-level predictor config (<l1size> <l2size> <hist_size> <xor>)
-bpred:comb      1024 # combining predictor config (<meta_table_size>)
-bpred:ras                  8 # return address stack size (0 for no return stack)
-bpred:btb       512 4 # BTB config (<num_sets> <associativity>)
# -bpred:spec_update       <null> # speculative predictors update in {ID|WB} (default non-spec)
-decode:width               4 # instruction decode B/W (insts/cycle)
-issue:width                4 # instruction issue B/W (insts/cycle)
-issue:inorder          false # run pipeline with in-order issue
-issue:wrongpath         true # issue instructions down wrong execution paths
-commit:width               4 # instruction commit B/W (insts/cycle)
-ruu:size                  16 # register update unit (RUU) size
-lsq:size                   8 # load/store queue (LSQ) size
-cache:dl1       dl1:128:32:4:l # l1 data cache config, i.e., {<config>|none}
-cache:dl1lat               1 # l1 data cache hit latency (in cycles)
-cache:dl2       ul2:1024:64:4:l # l2 data cache config, i.e., {<config>|none}
-cache:dl2lat               6 # l2 data cache hit latency (in cycles)
-cache:il1       il1:512:32:1:l # l1 inst cache config, i.e., {<config>|dl1|dl2|none}
-cache:il1lat               1 # l1 instruction cache hit latency (in cycles)
-cache:il2                dl2 # l2 instruction cache config, i.e., {<config>|dl2|none}
-cache:il2lat               6 # l2 instruction cache hit latency (in cycles)
-cache:flush            false # flush caches on system calls
-cache:icompress        false # convert 64-bit inst addresses to 32-bit inst equivalents
-mem:lat         300 2 # memory access latency (<first_chunk> <inter_chunk>)
-mem:width                 32 # memory access bus width (in bytes)
-tlb:itlb        itlb:16:4096:4:l # instruction TLB config, i.e., {<config>|none}
-tlb:dtlb        dtlb:32:4096:4:l # data TLB config, i.e., {<config>|none}
-tlb:lat                   30 # inst/data TLB miss latency (in cycles)
-res:ialu                   4 # total number of integer ALU's available
-res:imult                  1 # total number of integer multiplier/dividers available
-res:memport                2 # total number of memory system ports available (to CPU)
-res:fpalu                  4 # total number of floating point ALU's available
-res:fpmult                 1 # total number of floating point multiplier/dividers available
# -pcstat              <null> # profile stat(s) against text addr's (mult uses ok)
-bugcompat              false # operate in backward-compatible bugs mode (for testing only)

  Pipetrace range arguments are formatted as follows:

    {{@|#}<start>}:{{@|#|+}<end>}

  Both ends of the range are optional, if neither are specified, the entire
  execution is traced.  Ranges that start with a `@' designate an address
  range to be traced, those that start with an `#' designate a cycle count
  range.  All other range values represent an instruction count range.  The
  second argument, if specified with a `+', indicates a value relative
  to the first argument, e.g., 1000:+100 == 1000:1100.  Program symbols may
  be used in all contexts.

    Examples:   -ptrace FOO.trc #0:#1000
                -ptrace BAR.trc @2000:
                -ptrace BLAH.trc :1500
                -ptrace UXXE.trc :
                -ptrace FOOBAR.trc @main:+278

  Branch predictor configuration examples for 2-level predictor:
    Configurations:   N, M, W, X
      N   # entries in first level (# of shift register(s))
      W   width of shift register(s)
      M   # entries in 2nd level (# of counters, or other FSM)
      X   (yes-1/no-0) xor history and address for 2nd level index
    Sample predictors:
      GAg     : 1, W, 2^W, 0
      GAp     : 1, W, M (M > 2^W), 0
      PAg     : N, W, 2^W, 0
      PAp     : N, W, M (M == 2^(N+W)), 0
      gshare  : 1, W, 2^W, 1
  Predictor `comb' combines a bimodal and a 2-level predictor.

  The cache config parameter <config> has the following format:

    <name>:<nsets>:<bsize>:<assoc>:<repl>

    <name>   - name of the cache being defined
    <nsets>  - number of sets in the cache
    <bsize>  - block size of the cache
    <assoc>  - associativity of the cache
    <repl>   - block replacement strategy, 'l'-LRU, 'f'-FIFO, 'r'-random

    Examples:   -cache:dl1 dl1:4096:32:1:l
                -dtlb dtlb:128:4096:32:r

  Cache levels can be unified by pointing a level of the instruction cache
  hierarchy at the data cache hiearchy using the "dl1" and "dl2" cache
  configuration arguments.  Most sensible combinations are supported, e.g.,

    A unified l2 cache (il2 is pointed at dl2):
      -cache:il1 il1:128:64:1:l -cache:il2 dl2
      -cache:dl1 dl1:256:32:1:l -cache:dl2 ul2:1024:64:2:l

    Or, a fully unified cache hierarchy (il1 pointed at dl1):
      -cache:il1 dl1
      -cache:dl1 ul1:256:32:1:l -cache:dl2 ul2:1024:64:2:l



sim: ** fast forwarding 100000000 insts **
../../exe/equake.exe: Reading nodes.
sim: ** starting performance simulation **

sim: ** simulation statistics **
sim_num_insn              100000001 # total number of instructions committed
sim_num_refs               35365793 # total number of loads and stores committed
sim_num_loads              26880458 # total number of loads committed
sim_num_stores         8485335.0000 # total number of stores committed
sim_num_branches           16535689 # total number of branches committed
sim_elapsed_time                 18 # total simulation time in seconds
sim_inst_rate          5555555.6111 # simulation speed (in insts/sec)
sim_total_insn            100000001 # total number of instructions executed
sim_total_refs             35365793 # total number of loads and stores executed
sim_total_loads            26880458 # total number of loads executed
sim_total_stores       8485335.0000 # total number of stores executed
sim_total_branches         16535689 # total number of branches executed
sim_cycle                  55821330 # total simulation time in cycles
sim_IPC                      1.7914 # instructions per cycle
sim_CPI                      0.5582 # cycles per instruction
sim_exec_BW                  1.7914 # total instructions (mis-spec + committed) per cycle
sim_IPB                      6.0475 # instruction per branch
IFQ_count                 148573479 # cumulative IFQ occupancy
IFQ_fcount                 36609116 # cumulative IFQ full count
ifq_occupancy                2.6616 # avg IFQ occupancy (insn's)
ifq_rate                     1.7914 # avg IFQ dispatch rate (insn/cycle)
ifq_latency                  1.4857 # avg IFQ occupant latency (cycle's)
ifq_full                     0.6558 # fraction of time (cycle's) IFQ was full
RUU_count                 561996126 # cumulative RUU occupancy
RUU_fcount                 15567774 # cumulative RUU full count
ruu_occupancy               10.0678 # avg RUU occupancy (insn's)
ruu_rate                     1.7914 # avg RUU dispatch rate (insn/cycle)
ruu_latency                  5.6200 # avg RUU occupant latency (cycle's)
ruu_full                     0.2789 # fraction of time (cycle's) RUU was full
LSQ_count                 200055979 # cumulative LSQ occupancy
LSQ_fcount                  3932024 # cumulative LSQ full count
lsq_occupancy                3.5839 # avg LSQ occupancy (insn's)
lsq_rate                     1.7914 # avg LSQ dispatch rate (insn/cycle)
lsq_latency                  2.0006 # avg LSQ occupant latency (cycle's)
lsq_full                     0.0704 # fraction of time (cycle's) LSQ was full
sim_slip                  897417887 # total number of slip cycles
avg_sim_slip                 8.9742 # the average slip between issue and retirement
il1.accesses              121169418 # total number of accesses
il1.hits                  117977249 # total number of hits
il1.misses                  3192169 # total number of misses
il1.replacements            3191912 # total number of replacements
il1.writebacks                    0 # total number of writebacks
il1.invalidations                 0 # total number of invalidations
il1.miss_rate                0.0263 # miss rate (i.e., misses/ref)
il1.repl_rate                0.0263 # replacement rate (i.e., repls/ref)
il1.wb_rate                  0.0000 # writeback rate (i.e., wrbks/ref)
il1.inv_rate                 0.0000 # invalidation rate (i.e., invs/ref)
dl1.accesses               35112636 # total number of accesses
dl1.hits                   35091175 # total number of hits
dl1.misses                    21461 # total number of misses
dl1.replacements              20949 # total number of replacements
dl1.writebacks                10839 # total number of writebacks
dl1.invalidations                 0 # total number of invalidations
dl1.miss_rate                0.0006 # miss rate (i.e., misses/ref)
dl1.repl_rate                0.0006 # replacement rate (i.e., repls/ref)
dl1.wb_rate                  0.0003 # writeback rate (i.e., wrbks/ref)
dl1.inv_rate                 0.0000 # invalidation rate (i.e., invs/ref)
ul2.accesses                3224469 # total number of accesses
ul2.hits                    3217322 # total number of hits
ul2.misses                     7147 # total number of misses
ul2.replacements               3051 # total number of replacements
ul2.writebacks                 2557 # total number of writebacks
ul2.invalidations                 0 # total number of invalidations
ul2.miss_rate                0.0022 # miss rate (i.e., misses/ref)
ul2.repl_rate                0.0009 # replacement rate (i.e., repls/ref)
ul2.wb_rate                  0.0008 # writeback rate (i.e., wrbks/ref)
ul2.inv_rate                 0.0000 # invalidation rate (i.e., invs/ref)
itlb.accesses             121169418 # total number of accesses
itlb.hits                 121169402 # total number of hits
itlb.misses                      16 # total number of misses
itlb.replacements                 0 # total number of replacements
itlb.writebacks                   0 # total number of writebacks
itlb.invalidations                0 # total number of invalidations
itlb.miss_rate               0.0000 # miss rate (i.e., misses/ref)
itlb.repl_rate               0.0000 # replacement rate (i.e., repls/ref)
itlb.wb_rate                 0.0000 # writeback rate (i.e., wrbks/ref)
itlb.inv_rate                0.0000 # invalidation rate (i.e., invs/ref)
dtlb.accesses              35365791 # total number of accesses
dtlb.hits                  35365668 # total number of hits
dtlb.misses                     123 # total number of misses
dtlb.replacements                 8 # total number of replacements
dtlb.writebacks                   0 # total number of writebacks
dtlb.invalidations                0 # total number of invalidations
dtlb.miss_rate               0.0000 # miss rate (i.e., misses/ref)
dtlb.repl_rate               0.0000 # replacement rate (i.e., repls/ref)
dtlb.wb_rate                 0.0000 # writeback rate (i.e., wrbks/ref)
dtlb.inv_rate                0.0000 # invalidation rate (i.e., invs/ref)
sim_invalid_addrs                 0 # total non-speculative bogus addresses seen (debug var)
ld_text_base           0x0120000000 # program text (code) segment base
ld_text_size                 237568 # program text (code) size in bytes
ld_data_base           0x0140000000 # program initialized data segment base
ld_data_size                  76576 # program init'ed `.data' and uninit'ed `.bss' size in bytes
ld_stack_base          0x011ff9b000 # program stack segment base (highest address in stack)
ld_stack_size                 16384 # program initial stack size
ld_prog_entry          0x012000cee0 # program entry point (initial PC)
ld_environ_base        0x011ff97000 # program environment base address address
ld_target_big_endian              0 # target executable endian-ness, non-zero if big endian
mem.page_count                  198 # total number of pages allocated
mem.page_mem                  1584k # total size of memory pages allocated
mem.ptab_misses             7519148 # total first level page table misses
mem.ptab_accesses        1480214284 # total page table accesses
mem.ptab_miss_rate           0.0051 # first level page table miss rate

sim-outorder: SimpleScalar/Alpha Tool Set version 3.0 of August, 2003.
Copyright (c) 1994-2003 by Todd M. Austin, Ph.D. and SimpleScalar, LLC.
All Rights Reserved. This version of SimpleScalar is licensed for academic
non-commercial use.  No portion of this work may be used by any commercial
entity, or for any commercial purpose, without the prior written permission
of SimpleScalar, LLC (info@simplescalar.com).

warning: section `.comment' ignored...
sim: command line: sim-outorder -fastfwd 100000000 -max:inst 100000000 -bpred perfect -mem:width 32 -mem:lat 300 2 ../../exe/vpr.exe net.in arch.in place.out dum.out -nodisp -place_only -init_t 5 -exit_t 0.005 -alpha_t 0.9412 -inner_num 2 

sim: simulation started @ Fri Oct 25 21:41:53 2024, options follow:

sim-outorder: This simulator implements a very detailed out-of-order issue
superscalar processor with a two-level memory system and speculative
execution support.  This simulator is a performance simulator, tracking the
latency of all pipeline operations.

# -config                     # load configuration from a file
# -dumpconfig                 # dump configuration to a file
# -h                    false # print help message    
# -v                    false # verbose operation     
# -d                    false # enable debug message  
# -i                    false # start in Dlite debugger
-seed                       1 # random number generator seed (0 for timer seed)
# -q                    false # initialize and terminate immediately
# -chkpt               <null> # restore EIO trace execution from <fname>
# -redir:sim           <null> # redirect simulator output to file (non-interactive only)
# -redir:prog          <null> # redirect simulated program output to file
-nice                       0 # simulator scheduling priority
-max:inst           100000000 # maximum number of inst's to execute
-fastfwd            100000000 # number of insts skipped before timing starts
# -ptrace              <null> # generate pipetrace, i.e., <fname|stdout|stderr> <range>
-fetch:ifqsize              4 # instruction fetch queue size (in insts)
-fetch:mplat                3 # extra branch mis-prediction latency
-fetch:speed                1 # speed of front-end of machine relative to execution core
-bpred                perfect # branch predictor type {nottaken|taken|perfect|bimod|2lev|comb}
-bpred:bimod     2048 # bimodal predictor config (<table size>)
-bpred:2lev      1 1024 8 0 # 2-level predictor config (<l1size> <l2size> <hist_size> <xor>)
-bpred:comb      1024 # combining predictor config (<meta_table_size>)
-bpred:ras                  8 # return address stack size (0 for no return stack)
-bpred:btb       512 4 # BTB config (<num_sets> <associativity>)
# -bpred:spec_update       <null> # speculative predictors update in {ID|WB} (default non-spec)
-decode:width               4 # instruction decode B/W (insts/cycle)
-issue:width                4 # instruction issue B/W (insts/cycle)
-issue:inorder          false # run pipeline with in-order issue
-issue:wrongpath         true # issue instructions down wrong execution paths
-commit:width               4 # instruction commit B/W (insts/cycle)
-ruu:size                  16 # register update unit (RUU) size
-lsq:size                   8 # load/store queue (LSQ) size
-cache:dl1       dl1:128:32:4:l # l1 data cache config, i.e., {<config>|none}
-cache:dl1lat               1 # l1 data cache hit latency (in cycles)
-cache:dl2       ul2:1024:64:4:l # l2 data cache config, i.e., {<config>|none}
-cache:dl2lat               6 # l2 data cache hit latency (in cycles)
-cache:il1       il1:512:32:1:l # l1 inst cache config, i.e., {<config>|dl1|dl2|none}
-cache:il1lat               1 # l1 instruction cache hit latency (in cycles)
-cache:il2                dl2 # l2 instruction cache config, i.e., {<config>|dl2|none}
-cache:il2lat               6 # l2 instruction cache hit latency (in cycles)
-cache:flush            false # flush caches on system calls
-cache:icompress        false # convert 64-bit inst addresses to 32-bit inst equivalents
-mem:lat         300 2 # memory access latency (<first_chunk> <inter_chunk>)
-mem:width                 32 # memory access bus width (in bytes)
-tlb:itlb        itlb:16:4096:4:l # instruction TLB config, i.e., {<config>|none}
-tlb:dtlb        dtlb:32:4096:4:l # data TLB config, i.e., {<config>|none}
-tlb:lat                   30 # inst/data TLB miss latency (in cycles)
-res:ialu                   4 # total number of integer ALU's available
-res:imult                  1 # total number of integer multiplier/dividers available
-res:memport                2 # total number of memory system ports available (to CPU)
-res:fpalu                  4 # total number of floating point ALU's available
-res:fpmult                 1 # total number of floating point multiplier/dividers available
# -pcstat              <null> # profile stat(s) against text addr's (mult uses ok)
-bugcompat              false # operate in backward-compatible bugs mode (for testing only)

  Pipetrace range arguments are formatted as follows:

    {{@|#}<start>}:{{@|#|+}<end>}

  Both ends of the range are optional, if neither are specified, the entire
  execution is traced.  Ranges that start with a `@' designate an address
  range to be traced, those that start with an `#' designate a cycle count
  range.  All other range values represent an instruction count range.  The
  second argument, if specified with a `+', indicates a value relative
  to the first argument, e.g., 1000:+100 == 1000:1100.  Program symbols may
  be used in all contexts.

    Examples:   -ptrace FOO.trc #0:#1000
                -ptrace BAR.trc @2000:
                -ptrace BLAH.trc :1500
                -ptrace UXXE.trc :
                -ptrace FOOBAR.trc @main:+278

  Branch predictor configuration examples for 2-level predictor:
    Configurations:   N, M, W, X
      N   # entries in first level (# of shift register(s))
      W   width of shift register(s)
      M   # entries in 2nd level (# of counters, or other FSM)
      X   (yes-1/no-0) xor history and address for 2nd level index
    Sample predictors:
      GAg     : 1, W, 2^W, 0
      GAp     : 1, W, M (M > 2^W), 0
      PAg     : N, W, 2^W, 0
      PAp     : N, W, M (M == 2^(N+W)), 0
      gshare  : 1, W, 2^W, 1
  Predictor `comb' combines a bimodal and a 2-level predictor.

  The cache config parameter <config> has the following format:

    <name>:<nsets>:<bsize>:<assoc>:<repl>

    <name>   - name of the cache being defined
    <nsets>  - number of sets in the cache
    <bsize>  - block size of the cache
    <assoc>  - associativity of the cache
    <repl>   - block replacement strategy, 'l'-LRU, 'f'-FIFO, 'r'-random

    Examples:   -cache:dl1 dl1:4096:32:1:l
                -dtlb dtlb:128:4096:32:r

  Cache levels can be unified by pointing a level of the instruction cache
  hierarchy at the data cache hiearchy using the "dl1" and "dl2" cache
  configuration arguments.  Most sensible combinations are supported, e.g.,

    A unified l2 cache (il2 is pointed at dl2):
      -cache:il1 il1:128:64:1:l -cache:il2 dl2
      -cache:dl1 dl1:256:32:1:l -cache:dl2 ul2:1024:64:2:l

    Or, a fully unified cache hierarchy (il1 pointed at dl1):
      -cache:il1 dl1
      -cache:dl1 ul1:256:32:1:l -cache:dl2 ul2:1024:64:2:l



sim: ** fast forwarding 100000000 insts **
sim: ** starting performance simulation **

sim: ** simulation statistics **
sim_num_insn              100000002 # total number of instructions committed
sim_num_refs               23147907 # total number of loads and stores committed
sim_num_loads              18700740 # total number of loads committed
sim_num_stores         4447167.0000 # total number of stores committed
sim_num_branches           19702631 # total number of branches committed
sim_elapsed_time                 16 # total simulation time in seconds
sim_inst_rate          6250000.1250 # simulation speed (in insts/sec)
sim_total_insn            100000002 # total number of instructions executed
sim_total_refs             23147907 # total number of loads and stores executed
sim_total_loads            18700740 # total number of loads executed
sim_total_stores       4447167.0000 # total number of stores executed
sim_total_branches         19702631 # total number of branches executed
sim_cycle                  73539358 # total simulation time in cycles
sim_IPC                      1.3598 # instructions per cycle
sim_CPI                      0.7354 # cycles per instruction
sim_exec_BW                  1.3598 # total instructions (mis-spec + committed) per cycle
sim_IPB                      5.0755 # instruction per branch
IFQ_count                 255843146 # cumulative IFQ occupancy
IFQ_fcount                 63787808 # cumulative IFQ full count
ifq_occupancy                3.4790 # avg IFQ occupancy (insn's)
ifq_rate                     1.3598 # avg IFQ dispatch rate (insn/cycle)
ifq_latency                  2.5584 # avg IFQ occupant latency (cycle's)
ifq_full                     0.8674 # fraction of time (cycle's) IFQ was full
RUU_count                 978884649 # cumulative RUU occupancy
RUU_fcount                 42640651 # cumulative RUU full count
ruu_occupancy               13.3110 # avg RUU occupancy (insn's)
ruu_rate                     1.3598 # avg RUU dispatch rate (insn/cycle)
ruu_latency                  9.7888 # avg RUU occupant latency (cycle's)
ruu_full                     0.5798 # fraction of time (cycle's) RUU was full
LSQ_count                 258076594 # cumulative LSQ occupancy
LSQ_fcount                  4315589 # cumulative LSQ full count
lsq_occupancy                3.5094 # avg LSQ occupancy (insn's)
lsq_rate                     1.3598 # avg LSQ dispatch rate (insn/cycle)
lsq_latency                  2.5808 # avg LSQ occupant latency (cycle's)
lsq_full                     0.0587 # fraction of time (cycle's) LSQ was full
sim_slip                 1360107274 # total number of slip cycles
avg_sim_slip                13.6011 # the average slip between issue and retirement
il1.accesses              119787374 # total number of accesses
il1.hits                  118197933 # total number of hits
il1.misses                  1589441 # total number of misses
il1.replacements            1588995 # total number of replacements
il1.writebacks                    0 # total number of writebacks
il1.invalidations                 0 # total number of invalidations
il1.miss_rate                0.0133 # miss rate (i.e., misses/ref)
il1.repl_rate                0.0133 # replacement rate (i.e., repls/ref)
il1.wb_rate                  0.0000 # writeback rate (i.e., wrbks/ref)
il1.inv_rate                 0.0000 # invalidation rate (i.e., invs/ref)
dl1.accesses               22958035 # total number of accesses
dl1.hits                   22588535 # total number of hits
dl1.misses                   369500 # total number of misses
dl1.replacements             368988 # total number of replacements
dl1.writebacks               118038 # total number of writebacks
dl1.invalidations                 0 # total number of invalidations
dl1.miss_rate                0.0161 # miss rate (i.e., misses/ref)
dl1.repl_rate                0.0161 # replacement rate (i.e., repls/ref)
dl1.wb_rate                  0.0051 # writeback rate (i.e., wrbks/ref)
dl1.inv_rate                 0.0000 # invalidation rate (i.e., invs/ref)
ul2.accesses                2076979 # total number of accesses
ul2.hits                    1958725 # total number of hits
ul2.misses                   118254 # total number of misses
ul2.replacements             114158 # total number of replacements
ul2.writebacks                47730 # total number of writebacks
ul2.invalidations                 0 # total number of invalidations
ul2.miss_rate                0.0569 # miss rate (i.e., misses/ref)
ul2.repl_rate                0.0550 # replacement rate (i.e., repls/ref)
ul2.wb_rate                  0.0230 # writeback rate (i.e., wrbks/ref)
ul2.inv_rate                 0.0000 # invalidation rate (i.e., invs/ref)
itlb.accesses             119787374 # total number of accesses
itlb.hits                 119787343 # total number of hits
itlb.misses                      31 # total number of misses
itlb.replacements                 0 # total number of replacements
itlb.writebacks                   0 # total number of writebacks
itlb.invalidations                0 # total number of invalidations
itlb.miss_rate               0.0000 # miss rate (i.e., misses/ref)
itlb.repl_rate               0.0000 # replacement rate (i.e., repls/ref)
itlb.wb_rate                 0.0000 # writeback rate (i.e., wrbks/ref)
itlb.inv_rate                0.0000 # invalidation rate (i.e., invs/ref)
dtlb.accesses              23147901 # total number of accesses
dtlb.hits                  23126506 # total number of hits
dtlb.misses                   21395 # total number of misses
dtlb.replacements             21267 # total number of replacements
dtlb.writebacks                   0 # total number of writebacks
dtlb.invalidations                0 # total number of invalidations
dtlb.miss_rate               0.0009 # miss rate (i.e., misses/ref)
dtlb.repl_rate               0.0009 # replacement rate (i.e., repls/ref)
dtlb.wb_rate                 0.0000 # writeback rate (i.e., wrbks/ref)
dtlb.inv_rate                0.0000 # invalidation rate (i.e., invs/ref)
sim_invalid_addrs                 0 # total non-speculative bogus addresses seen (debug var)
ld_text_base           0x0120000000 # program text (code) segment base
ld_text_size                 409600 # program text (code) size in bytes
ld_data_base           0x0140000000 # program initialized data segment base
ld_data_size                  83856 # program init'ed `.data' and uninit'ed `.bss' size in bytes
ld_stack_base          0x011ff9b000 # program stack segment base (highest address in stack)
ld_stack_size                 16384 # program initial stack size
ld_prog_entry          0x0120015520 # program entry point (initial PC)
ld_environ_base        0x011ff97000 # program environment base address address
ld_target_big_endian              0 # target executable endian-ness, non-zero if big endian
mem.page_count                  428 # total number of pages allocated
mem.page_mem                  3424k # total size of memory pages allocated
mem.ptab_misses              244006 # total first level page table misses
mem.ptab_accesses        1003092272 # total page table accesses
mem.ptab_miss_rate           0.0002 # first level page table miss rate

